/*---------------------------------------------------------------------------*\
| =========                 |                                                 |
| \\      /  F ield         | OpenFOAM: The Open Source CFD Toolbox           |
|  \\    /   O peration     | Version:  2.1.1                                 |
|   \\  /    A nd           | Web:      www.OpenFOAM.org                      |
|    \\/     M anipulation  |                                                 |
\*---------------------------------------------------------------------------*/
Build  : 2.1.1-221db2718bbb
Exec   : HPDCinterFoam
Date   : Sep 30 2014
Time   : 12:59:27
Host   : "Saeedipour-desktop"
PID    : 2871
Case   : /home/saeedipour/OpenFOAM/saeedipour-2.1.1/run/September_2014/Case8_TMS_1mm_50
nProcs : 1
sigFpe : Enabling floating point exception trapping (FOAM_SIGFPE).
fileModificationChecking : Monitoring run-time modified files using timeStampMaster
allowSystemOperations : Allowing user-supplied system call operations

// * * * * * * * * * * * * * * * * * * * * * * * * * * * * * * * * * * * * * //
Create time

Create mesh for time = 0


PIMPLE: Operating solver in PISO mode

Reading field p_rgh

Reading field T

Reading field alpha1

Reading field U

Reading/calculating face flux field phi

Reading transportProperties

Selecting incompressible transport model Newtonian
Selecting incompressible transport model Newtonian
Selecting turbulence model type RASModel
Selecting RAS turbulence model LRR
LRRCoeffs
{
    Cmu             0.09;
    Clrr1           1.8;
    Clrr2           0.6;
    C1              1.44;
    C2              1.92;
    Cs              0.25;
    Ceps            0.15;
    sigmaEps        1.3;
    couplingFactor  0;
}


Reading g
Calculating rho*cp

Reading / calculating rho*phi*cp

Calculating cpcp

Calculating field g.h

Reading field criterion2

Reading field Ndrop

time step continuity errors : sum local = 3.69994e-05, global = -3.69994e-05, cumulative = -3.69994e-05
DICPCG:  Solving for pcorr, Initial residual = 1, Final residual = 8.3393e-11, No Iterations 193
time step continuity errors : sum local = 3.09209e-15, global = 7.03513e-18, cumulative = -3.69994e-05
Courant Number mean: 0.0017333 max: 0.653042
Constructing Particles

Starting time loop

--> FOAM Warning : 
    From function findElements::findElements(const fvMesh&)
    in file probes/probes.C at line 102
    Did not find location (0.017 0.0065 0.003) in any cell. Skipping location.
Courant Number mean: 0.0017333 max: 0.653042
Interface Courant Number mean: 0 max: 0
Time = 1e-06

DILUPBiCG:  Solving for alpha1, Initial residual = 0.000232416, Final residual = 1.06952e-06, No Iterations 1
DILUPBiCG:  Solving for alpha1, Initial residual = 1.27282e-05, Final residual = 3.14097e-08, No Iterations 1
MULES: max(alpha1 - 1) = 4.24327e-13 min(alpha1) = -2.84484e-05
DILUPBiCG:  Solving for alpha1, Initial residual = 4.35327e-07, Final residual = 5.17889e-10, No Iterations 1
Phase-1 volume fraction = 0.0014923  Min(alpha1) = -2.36314e-06  Max(alpha1) = 1
DILUPBiCG:  Solving for alpha1, Initial residual = 0.000231727, Final residual = 1.09364e-06, No Iterations 1
DILUPBiCG:  Solving for alpha1, Initial residual = 1.17651e-05, Final residual = 2.70511e-08, No Iterations 1
MULES: max(alpha1 - 1) = 7.88036e-13 min(alpha1) = -2.81667e-05
DILUPBiCG:  Solving for alpha1, Initial residual = 1.63603e-07, Final residual = 9.10437e-11, No Iterations 1
Phase-1 volume fraction = 0.00150464  Min(alpha1) = -1.03973e-06  Max(alpha1) = 1
DILUPBiCG:  Solving for alpha1, Initial residual = 0.000230947, Final residual = 1.06161e-06, No Iterations 1
DILUPBiCG:  Solving for alpha1, Initial residual = 1.09783e-05, Final residual = 2.40215e-08, No Iterations 1
MULES: max(alpha1 - 1) = 1.10001e-12 min(alpha1) = -2.53094e-05
DILUPBiCG:  Solving for alpha1, Initial residual = 1.46286e-07, Final residual = 8.03092e-11, No Iterations 1
Phase-1 volume fraction = 0.00151697  Min(alpha1) = -9.33168e-07  Max(alpha1) = 1
DILUPBiCG:  Solving for T, Initial residual = 1, Final residual = 3.75617e-09, No Iterations 4
DICPCG:  Solving for p_rgh, Initial residual = 1, Final residual = 0.0421221, No Iterations 104
time step continuity errors : sum local = 1.56339e-06, global = 1.37506e-08, cumulative = -3.69856e-05
DICPCG:  Solving for p_rgh, Initial residual = 0.000131689, Final residual = 6.51118e-06, No Iterations 64
time step continuity errors : sum local = 5.84975e-06, global = 1.2533e-06, cumulative = -3.57323e-05
DICPCG:  Solving for p_rgh, Initial residual = 0.000182391, Final residual = 9.64481e-08, No Iterations 112
time step continuity errors : sum local = 2.87158e-08, global = -2.98078e-10, cumulative = -3.57326e-05
DILUPBiCG:  Solving for epsilon, Initial residual = 0.0108587, Final residual = 1.37213e-09, No Iterations 6
DILUPBiCG:  Solving for Rxx, Initial residual = 1, Final residual = 0.0285759, No Iterations 2
DILUPBiCG:  Solving for Rxy, Initial residual = 0, Final residual = 0, No Iterations 0
DILUPBiCG:  Solving for Rxz, Initial residual = 0, Final residual = 0, No Iterations 0
DILUPBiCG:  Solving for Ryy, Initial residual = 1, Final residual = 0.0285759, No Iterations 2
DILUPBiCG:  Solving for Ryz, Initial residual = 0, Final residual = 0, No Iterations 0
DILUPBiCG:  Solving for Rzz, Initial residual = 1, Final residual = 0.0285759, No Iterations 2
Moving particles.

ExecutionTime = 4 s  ClockTime = 4 s

Courant Number mean: 0.00188555 max: 0.565571
Interface Courant Number mean: 4.64972e-05 max: 0.228408
Time = 2e-06

DILUPBiCG:  Solving for alpha1, Initial residual = 0.000232842, Final residual = 5.90001e-08, No Iterations 1
DILUPBiCG:  Solving for alpha1, Initial residual = 2.1314e-05, Final residual = 1.31024e-08, No Iterations 1
MULES: max(alpha1 - 1) = 1.48069e-07 min(alpha1) = -0.000163305
DILUPBiCG:  Solving for alpha1, Initial residual = 8.08341e-07, Final residual = 1.21471e-09, No Iterations 1
MULES: max(alpha1 - 1) = 1.48069e-07 min(alpha1) = -2.19332e-05
DILUPBiCG:  Solving for alpha1, Initial residual = 8.61971e-08, Final residual = 1.05459e-10, No Iterations 1
Phase-1 volume fraction = 0.0015293  Min(alpha1) = -2.8276e-06  Max(alpha1) = 1
DILUPBiCG:  Solving for alpha1, Initial residual = 0.000231694, Final residual = 5.78112e-08, No Iterations 1
DILUPBiCG:  Solving for alpha1, Initial residual = 1.87992e-05, Final residual = 1.2042e-08, No Iterations 1
MULES: max(alpha1 - 1) = 2.78891e-07 min(alpha1) = -0.000120134
DILUPBiCG:  Solving for alpha1, Initial residual = 6.50872e-07, Final residual = 9.66256e-10, No Iterations 1
MULES: max(alpha1 - 1) = 2.78891e-07 min(alpha1) = -1.65546e-05
DILUPBiCG:  Solving for alpha1, Initial residual = 6.42703e-08, Final residual = 8.55014e-11, No Iterations 1
Phase-1 volume fraction = 0.00154164  Min(alpha1) = -2.13415e-06  Max(alpha1) = 1
DILUPBiCG:  Solving for alpha1, Initial residual = 0.000230589, Final residual = 5.91183e-08, No Iterations 1
DILUPBiCG:  Solving for alpha1, Initial residual = 1.6356e-05, Final residual = 1.10874e-08, No Iterations 1
MULES: max(alpha1 - 1) = 3.9489e-07 min(alpha1) = -7.16458e-05
DILUPBiCG:  Solving for alpha1, Initial residual = 4.63843e-07, Final residual = 6.54749e-10, No Iterations 1
MULES: max(alpha1 - 1) = 3.9489e-07 min(alpha1) = -1.03266e-05
DILUPBiCG:  Solving for alpha1, Initial residual = 4.17751e-08, Final residual = 5.74949e-11, No Iterations 1
Phase-1 volume fraction = 0.00155397  Min(alpha1) = -1.33115e-06  Max(alpha1) = 1
DILUPBiCG:  Solving for T, Initial residual = 0.309252, Final residual = 9.3185e-08, No Iterations 3
DICPCG:  Solving for p_rgh, Initial residual = 0.000761037, Final residual = 3.48589e-05, No Iterations 102
time step continuity errors : sum local = 1.19527e-05, global = 1.48616e-07, cumulative = -3.5584e-05
DICPCG:  Solving for p_rgh, Initial residual = 0.0415057, Final residual = 0.00172766, No Iterations 21
time step continuity errors : sum local = 2.26723e-06, global = 1.24448e-07, cumulative = -3.54595e-05
DICPCG:  Solving for p_rgh, Initial residual = 0.00875112, Final residual = 8.1116e-08, No Iterations 137
time step continuity errors : sum local = 7.58271e-11, global = -4.07926e-13, cumulative = -3.54595e-05
DILUPBiCG:  Solving for epsilon, Initial residual = 0.0402175, Final residual = 9.18469e-11, No Iterations 3
DILUPBiCG:  Solving for Rxx, Initial residual = 0.0194949, Final residual = 0.000226051, No Iterations 1
DILUPBiCG:  Solving for Rxy, Initial residual = 1, Final residual = 0.00713156, No Iterations 1
DILUPBiCG:  Solving for Rxz, Initial residual = 1, Final residual = 0.00713126, No Iterations 1
DILUPBiCG:  Solving for Ryy, Initial residual = 0.019304, Final residual = 0.000219201, No Iterations 1
DILUPBiCG:  Solving for Ryz, Initial residual = 1, Final residual = 0.00616609, No Iterations 1
DILUPBiCG:  Solving for Rzz, Initial residual = 0.0193041, Final residual = 0.000219181, No Iterations 1
Moving particles.

ExecutionTime = 6.12 s  ClockTime = 6 s

Courant Number mean: 0.00199926 max: 0.567074
Interface Courant Number mean: 9.20269e-05 max: 0.231691
Time = 3e-06

DILUPBiCG:  Solving for alpha1, Initial residual = 0.000233679, Final residual = 4.05953e-08, No Iterations 1
DILUPBiCG:  Solving for alpha1, Initial residual = 1.43479e-05, Final residual = 1.0344e-08, No Iterations 1
MULES: max(alpha1 - 1) = 3.47293e-07 min(alpha1) = -3.22068e-05
DILUPBiCG:  Solving for alpha1, Initial residual = 1.72689e-07, Final residual = 2.13803e-10, No Iterations 1
Phase-1 volume fraction = 0.0015663  Min(alpha1) = -4.83344e-06  Max(alpha1) = 1
DILUPBiCG:  Solving for alpha1, Initial residual = 0.000232519, Final residual = 4.01437e-08, No Iterations 1
DILUPBiCG:  Solving for alpha1, Initial residual = 1.20388e-05, Final residual = 1.08336e-08, No Iterations 1
MULES: max(alpha1 - 1) = 3.06704e-07 min(alpha1) = -3.52398e-05
DILUPBiCG:  Solving for alpha1, Initial residual = 1.51825e-07, Final residual = 3.50708e-10, No Iterations 1
Phase-1 volume fraction = 0.00157864  Min(alpha1) = -2.94978e-06  Max(alpha1) = 1
DILUPBiCG:  Solving for alpha1, Initial residual = 0.000231389, Final residual = 4.08568e-08, No Iterations 1
DILUPBiCG:  Solving for alpha1, Initial residual = 9.87961e-06, Final residual = 1.13466e-08, No Iterations 1
MULES: max(alpha1 - 1) = 2.71285e-07 min(alpha1) = -3.7784e-05
DILUPBiCG:  Solving for alpha1, Initial residual = 1.62722e-07, Final residual = 3.77771e-10, No Iterations 1
Phase-1 volume fraction = 0.00159097  Min(alpha1) = -3.1624e-06  Max(alpha1) = 1
DILUPBiCG:  Solving for T, Initial residual = 0.18827, Final residual = 5.40226e-08, No Iterations 3
DICPCG:  Solving for p_rgh, Initial residual = 0.0427044, Final residual = 0.00195336, No Iterations 22
time step continuity errors : sum local = 1.75088e-06, global = 2.33091e-07, cumulative = -3.52265e-05
DICPCG:  Solving for p_rgh, Initial residual = 0.0184516, Final residual = 0.000897516, No Iterations 27
time step continuity errors : sum local = 4.98218e-07, global = 2.72797e-07, cumulative = -3.49537e-05
DICPCG:  Solving for p_rgh, Initial residual = 0.00627555, Final residual = 8.55313e-08, No Iterations 128
time step continuity errors : sum local = 3.43769e-11, global = -2.07084e-13, cumulative = -3.49537e-05
DILUPBiCG:  Solving for epsilon, Initial residual = 0.00636975, Final residual = 1.90438e-10, No Iterations 3
DILUPBiCG:  Solving for Rxx, Initial residual = 0.0107146, Final residual = 0.000138219, No Iterations 1
DILUPBiCG:  Solving for Rxy, Initial residual = 0.372476, Final residual = 0.00072985, No Iterations 1
DILUPBiCG:  Solving for Rxz, Initial residual = 0.469484, Final residual = 0.000965234, No Iterations 1
DILUPBiCG:  Solving for Ryy, Initial residual = 0.0103893, Final residual = 0.000137448, No Iterations 1
DILUPBiCG:  Solving for Ryz, Initial residual = 0.392091, Final residual = 0.00262188, No Iterations 1
DILUPBiCG:  Solving for Rzz, Initial residual = 0.0103905, Final residual = 0.000137473, No Iterations 1
Moving particles.

ExecutionTime = 7.98 s  ClockTime = 8 s

Courant Number mean: 0.00205873 max: 0.554686
Interface Courant Number mean: 9.82225e-05 max: 0.229871
Time = 4e-06

DILUPBiCG:  Solving for alpha1, Initial residual = 0.000231269, Final residual = 3.58696e-08, No Iterations 1
DILUPBiCG:  Solving for alpha1, Initial residual = 7.75255e-06, Final residual = 1.08366e-08, No Iterations 1
MULES: max(alpha1 - 1) = 2.40929e-07 min(alpha1) = -4.5565e-05
DILUPBiCG:  Solving for alpha1, Initial residual = 2.20161e-07, Final residual = 5.02071e-10, No Iterations 1
Phase-1 volume fraction = 0.0016033  Min(alpha1) = -4.77571e-06  Max(alpha1) = 1
DILUPBiCG:  Solving for alpha1, Initial residual = 0.000230068, Final residual = 3.7612e-08, No Iterations 1
DILUPBiCG:  Solving for alpha1, Initial residual = 7.12118e-06, Final residual = 1.14426e-08, No Iterations 1
MULES: max(alpha1 - 1) = 2.39268e-07 min(alpha1) = -4.78802e-05
DILUPBiCG:  Solving for alpha1, Initial residual = 2.32892e-07, Final residual = 5.31449e-10, No Iterations 1
Phase-1 volume fraction = 0.00161564  Min(alpha1) = -5.03844e-06  Max(alpha1) = 1
DILUPBiCG:  Solving for alpha1, Initial residual = 0.000228884, Final residual = 4.01897e-08, No Iterations 1
DILUPBiCG:  Solving for alpha1, Initial residual = 7.50257e-06, Final residual = 1.20928e-08, No Iterations 1
MULES: max(alpha1 - 1) = 2.37823e-07 min(alpha1) = -4.93923e-05
DILUPBiCG:  Solving for alpha1, Initial residual = 2.433e-07, Final residual = 5.5538e-10, No Iterations 1
Phase-1 volume fraction = 0.00162797  Min(alpha1) = -5.21762e-06  Max(alpha1) = 1
DILUPBiCG:  Solving for T, Initial residual = 0.134701, Final residual = 3.29861e-08, No Iterations 3
DICPCG:  Solving for p_rgh, Initial residual = 0.0628848, Final residual = 0.00283472, No Iterations 21
time step continuity errors : sum local = 1.10265e-06, global = 8.37303e-08, cumulative = -3.48699e-05
DICPCG:  Solving for p_rgh, Initial residual = 0.0283502, Final residual = 0.00139229, No Iterations 12
time step continuity errors : sum local = 4.07022e-07, global = -6.77871e-08, cumulative = -3.49377e-05
DICPCG:  Solving for p_rgh, Initial residual = 0.00657455, Final residual = 9.45185e-08, No Iterations 130
time step continuity errors : sum local = 2.60766e-11, global = 1.02763e-13, cumulative = -3.49377e-05
DILUPBiCG:  Solving for epsilon, Initial residual = 0.00223576, Final residual = 2.07751e-10, No Iterations 3
DILUPBiCG:  Solving for Rxx, Initial residual = 0.007518, Final residual = 0.000175294, No Iterations 1
DILUPBiCG:  Solving for Rxy, Initial residual = 0.205292, Final residual = 0.000358118, No Iterations 1
DILUPBiCG:  Solving for Rxz, Initial residual = 0.227252, Final residual = 0.000421614, No Iterations 1
DILUPBiCG:  Solving for Ryy, Initial residual = 0.00720486, Final residual = 0.000203017, No Iterations 1
DILUPBiCG:  Solving for Ryz, Initial residual = 0.258923, Final residual = 0.00205658, No Iterations 1
DILUPBiCG:  Solving for Rzz, Initial residual = 0.00720531, Final residual = 0.000203153, No Iterations 1
Moving particles.

ExecutionTime = 9.85 s  ClockTime = 10 s

Courant Number mean: 0.0021195 max: 0.55124
Interface Courant Number mean: 0.000107039 max: 0.227953
Time = 5e-06

DILUPBiCG:  Solving for alpha1, Initial residual = 0.000227919, Final residual = 2.85885e-08, No Iterations 1
DILUPBiCG:  Solving for alpha1, Initial residual = 8.3425e-06, Final residual = 7.64232e-09, No Iterations 1
MULES: max(alpha1 - 1) = 2.37447e-07 min(alpha1) = -5.40653e-05
DILUPBiCG:  Solving for alpha1, Initial residual = 3.02022e-07, Final residual = 5.81589e-10, No Iterations 1
Phase-1 volume fraction = 0.0016403  Min(alpha1) = -7.10858e-06  Max(alpha1) = 1
DILUPBiCG:  Solving for alpha1, Initial residual = 0.000226782, Final residual = 3.05652e-08, No Iterations 1
DILUPBiCG:  Solving for alpha1, Initial residual = 9.68493e-06, Final residual = 8.03101e-09, No Iterations 1
MULES: max(alpha1 - 1) = 2.37072e-07 min(alpha1) = -5.15203e-05
DILUPBiCG:  Solving for alpha1, Initial residual = 3.03514e-07, Final residual = 5.80597e-10, No Iterations 1
Phase-1 volume fraction = 0.00165264  Min(alpha1) = -6.86109e-06  Max(alpha1) = 1
DILUPBiCG:  Solving for alpha1, Initial residual = 0.000225682, Final residual = 3.30824e-08, No Iterations 1
DILUPBiCG:  Solving for alpha1, Initial residual = 1.35528e-05, Final residual = 8.47945e-09, No Iterations 1
MULES: max(alpha1 - 1) = 2.36697e-07 min(alpha1) = -4.31487e-05
DILUPBiCG:  Solving for alpha1, Initial residual = 2.74962e-07, Final residual = 5.26321e-10, No Iterations 1
Phase-1 volume fraction = 0.00166497  Min(alpha1) = -5.35347e-06  Max(alpha1) = 1
DILUPBiCG:  Solving for T, Initial residual = 0.105012, Final residual = 2.26125e-08, No Iterations 3
DICPCG:  Solving for p_rgh, Initial residual = 0.0568767, Final residual = 0.00268215, No Iterations 22
time step continuity errors : sum local = 5.89663e-07, global = 1.16899e-07, cumulative = -3.48208e-05
DICPCG:  Solving for p_rgh, Initial residual = 0.020388, Final residual = 0.000949807, No Iterations 28
time step continuity errors : sum local = 2.24136e-07, global = 8.05478e-08, cumulative = -3.47403e-05
DICPCG:  Solving for p_rgh, Initial residual = 0.00511003, Final residual = 7.57258e-08, No Iterations 129
time step continuity errors : sum local = 1.62544e-11, global = -5.07922e-14, cumulative = -3.47403e-05
DILUPBiCG:  Solving for epsilon, Initial residual = 0.00117442, Final residual = 1.71643e-10, No Iterations 3
DILUPBiCG:  Solving for Rxx, Initial residual = 0.00585182, Final residual = 2.50309e-07, No Iterations 2
DILUPBiCG:  Solving for Rxy, Initial residual = 0.146165, Final residual = 0.000242182, No Iterations 1
DILUPBiCG:  Solving for Rxz, Initial residual = 0.173321, Final residual = 0.000307871, No Iterations 1
DILUPBiCG:  Solving for Ryy, Initial residual = 0.00558094, Final residual = 0.000201303, No Iterations 1
DILUPBiCG:  Solving for Ryz, Initial residual = 0.195474, Final residual = 0.00156079, No Iterations 1
DILUPBiCG:  Solving for Rzz, Initial residual = 0.00558089, Final residual = 0.000201558, No Iterations 1
Moving particles.

ExecutionTime = 11.73 s  ClockTime = 11 s

Courant Number mean: 0.00216939 max: 0.555514
Interface Courant Number mean: 0.000111317 max: 0.226451
Time = 6e-06

DILUPBiCG:  Solving for alpha1, Initial residual = 0.000224645, Final residual = 2.3396e-08, No Iterations 1
DILUPBiCG:  Solving for alpha1, Initial residual = 2.51147e-05, Final residual = 6.72817e-09, No Iterations 1
MULES: max(alpha1 - 1) = 2.36064e-07 min(alpha1) = -3.77094e-05
DILUPBiCG:  Solving for alpha1, Initial residual = 1.95426e-07, Final residual = 3.36051e-10, No Iterations 1
Phase-1 volume fraction = 0.0016773  Min(alpha1) = -5.33238e-06  Max(alpha1) = 1
DILUPBiCG:  Solving for alpha1, Initial residual = 0.000223621, Final residual = 2.52442e-08, No Iterations 1
DILUPBiCG:  Solving for alpha1, Initial residual = 3.21175e-05, Final residual = 8.28166e-09, No Iterations 1
MULES: max(alpha1 - 1) = 2.35432e-07 min(alpha1) = -3.37778e-05
DILUPBiCG:  Solving for alpha1, Initial residual = 1.18484e-07, Final residual = 1.8694e-10, No Iterations 1
Phase-1 volume fraction = 0.00168963  Min(alpha1) = -4.68489e-06  Max(alpha1) = 1
DILUPBiCG:  Solving for alpha1, Initial residual = 0.00022264, Final residual = 2.77353e-08, No Iterations 1
DILUPBiCG:  Solving for alpha1, Initial residual = 3.23016e-05, Final residual = 8.52355e-09, No Iterations 1
MULES: max(alpha1 - 1) = 2.34803e-07 min(alpha1) = -2.2126e-05
DILUPBiCG:  Solving for alpha1, Initial residual = 9.06152e-08, Final residual = 1.5537e-10, No Iterations 1
Phase-1 volume fraction = 0.00170197  Min(alpha1) = -3.82044e-06  Max(alpha1) = 1
DILUPBiCG:  Solving for T, Initial residual = 0.0865067, Final residual = 1.68907e-08, No Iterations 3
DICPCG:  Solving for p_rgh, Initial residual = 0.0635133, Final residual = 0.00299968, No Iterations 10
time step continuity errors : sum local = 5.87758e-07, global = 2.15743e-07, cumulative = -3.45245e-05
DICPCG:  Solving for p_rgh, Initial residual = 0.0184032, Final residual = 0.000866012, No Iterations 11
time step continuity errors : sum local = 1.69871e-07, global = 1.22027e-07, cumulative = -3.44025e-05
DICPCG:  Solving for p_rgh, Initial residual = 0.00372403, Final residual = 9.53295e-08, No Iterations 131
time step continuity errors : sum local = 1.8418e-11, global = 8.0547e-14, cumulative = -3.44025e-05
DILUPBiCG:  Solving for epsilon, Initial residual = 0.000774217, Final residual = 1.49508e-10, No Iterations 3
DILUPBiCG:  Solving for Rxx, Initial residual = 0.0048206, Final residual = 5.96053e-05, No Iterations 1
DILUPBiCG:  Solving for Rxy, Initial residual = 0.119607, Final residual = 0.000194209, No Iterations 1
DILUPBiCG:  Solving for Rxz, Initial residual = 0.141577, Final residual = 0.000250302, No Iterations 1
DILUPBiCG:  Solving for Ryy, Initial residual = 0.00452442, Final residual = 4.41739e-05, No Iterations 1
DILUPBiCG:  Solving for Ryz, Initial residual = 0.168848, Final residual = 0.00132866, No Iterations 1
DILUPBiCG:  Solving for Rzz, Initial residual = 0.00452405, Final residual = 4.43668e-05, No Iterations 1
Moving particles.

ExecutionTime = 13.53 s  ClockTime = 13 s

Courant Number mean: 0.00221269 max: 0.560572
Interface Courant Number mean: 0.000150163 max: 0.226753
Time = 7e-06

DILUPBiCG:  Solving for alpha1, Initial residual = 0.000221933, Final residual = 2.18115e-08, No Iterations 1
DILUPBiCG:  Solving for alpha1, Initial residual = 2.98867e-05, Final residual = 7.33532e-09, No Iterations 1
MULES: max(alpha1 - 1) = 2.33879e-07 min(alpha1) = -2.61124e-05
DILUPBiCG:  Solving for alpha1, Initial residual = 1.05242e-07, Final residual = 2.24293e-10, No Iterations 1
Phase-1 volume fraction = 0.0017143  Min(alpha1) = -3.74549e-06  Max(alpha1) = 1
DILUPBiCG:  Solving for alpha1, Initial residual = 0.000221129, Final residual = 2.42984e-08, No Iterations 1
DILUPBiCG:  Solving for alpha1, Initial residual = 2.7386e-05, Final residual = 7.6901e-09, No Iterations 1
MULES: max(alpha1 - 1) = 2.32959e-07 min(alpha1) = -2.9267e-05
DILUPBiCG:  Solving for alpha1, Initial residual = 1.15606e-07, Final residual = 2.57664e-10, No Iterations 1
Phase-1 volume fraction = 0.00172663  Min(alpha1) = -2.79283e-06  Max(alpha1) = 1
DILUPBiCG:  Solving for alpha1, Initial residual = 0.00022034, Final residual = 2.74057e-08, No Iterations 1
DILUPBiCG:  Solving for alpha1, Initial residual = 2.45911e-05, Final residual = 8.08327e-09, No Iterations 1
MULES: max(alpha1 - 1) = 2.32042e-07 min(alpha1) = -3.22595e-05
DILUPBiCG:  Solving for alpha1, Initial residual = 1.28015e-07, Final residual = 2.85997e-10, No Iterations 1
Phase-1 volume fraction = 0.00173897  Min(alpha1) = -3.08195e-06  Max(alpha1) = 1
DILUPBiCG:  Solving for T, Initial residual = 0.0741639, Final residual = 1.31572e-08, No Iterations 3
DICPCG:  Solving for p_rgh, Initial residual = 0.0906016, Final residual = 0.00370593, No Iterations 8
time step continuity errors : sum local = 6.84131e-07, global = -1.11686e-08, cumulative = -3.44137e-05
DICPCG:  Solving for p_rgh, Initial residual = 0.0232553, Final residual = 0.00114811, No Iterations 13
time step continuity errors : sum local = 2.23478e-07, global = -1.26481e-07, cumulative = -3.45401e-05
DICPCG:  Solving for p_rgh, Initial residual = 0.00463074, Final residual = 9.90428e-08, No Iterations 129
time step continuity errors : sum local = 1.93598e-11, global = -2.1471e-14, cumulative = -3.45401e-05
DILUPBiCG:  Solving for epsilon, Initial residual = 0.000587209, Final residual = 1.3638e-10, No Iterations 3
DILUPBiCG:  Solving for Rxx, Initial residual = 0.00412372, Final residual = 3.69876e-05, No Iterations 1
DILUPBiCG:  Solving for Rxy, Initial residual = 0.0998772, Final residual = 0.000160238, No Iterations 1
DILUPBiCG:  Solving for Rxz, Initial residual = 0.117053, Final residual = 0.000208145, No Iterations 1
DILUPBiCG:  Solving for Ryy, Initial residual = 0.00384825, Final residual = 3.0682e-05, No Iterations 1
DILUPBiCG:  Solving for Ryz, Initial residual = 0.146761, Final residual = 0.0011165, No Iterations 1
DILUPBiCG:  Solving for Rzz, Initial residual = 0.00384769, Final residual = 3.08747e-05, No Iterations 1
Moving particles.

ExecutionTime = 15.34 s  ClockTime = 15 s

Courant Number mean: 0.00226526 max: 0.559559
Interface Courant Number mean: 0.000148291 max: 0.233452
Time = 8e-06

DILUPBiCG:  Solving for alpha1, Initial residual = 0.000219691, Final residual = 2.30512e-08, No Iterations 1
DILUPBiCG:  Solving for alpha1, Initial residual = 2.12357e-05, Final residual = 6.74459e-09, No Iterations 1
MULES: max(alpha1 - 1) = 2.31021e-07 min(alpha1) = -3.91494e-05
DILUPBiCG:  Solving for alpha1, Initial residual = 1.66525e-07, Final residual = 3.43863e-10, No Iterations 1
Phase-1 volume fraction = 0.0017513  Min(alpha1) = -4.46557e-06  Max(alpha1) = 1
DILUPBiCG:  Solving for alpha1, Initial residual = 0.000218896, Final residual = 2.589e-08, No Iterations 1
DILUPBiCG:  Solving for alpha1, Initial residual = 1.85133e-05, Final residual = 7.12681e-09, No Iterations 1
MULES: max(alpha1 - 1) = 2.30004e-07 min(alpha1) = -4.15952e-05
DILUPBiCG:  Solving for alpha1, Initial residual = 1.79824e-07, Final residual = 3.71228e-10, No Iterations 1
Phase-1 volume fraction = 0.00176363  Min(alpha1) = -4.75833e-06  Max(alpha1) = 1
DILUPBiCG:  Solving for alpha1, Initial residual = 0.000218097, Final residual = 2.89017e-08, No Iterations 1
DILUPBiCG:  Solving for alpha1, Initial residual = 1.60041e-05, Final residual = 7.53776e-09, No Iterations 1
MULES: max(alpha1 - 1) = 2.28991e-07 min(alpha1) = -4.34161e-05
DILUPBiCG:  Solving for alpha1, Initial residual = 1.9205e-07, Final residual = 3.96604e-10, No Iterations 1
Phase-1 volume fraction = 0.00177597  Min(alpha1) = -4.98677e-06  Max(alpha1) = 1
DILUPBiCG:  Solving for T, Initial residual = 0.0654445, Final residual = 1.0734e-08, No Iterations 3
DICPCG:  Solving for p_rgh, Initial residual = 0.0665432, Final residual = 0.00295938, No Iterations 5
time step continuity errors : sum local = 5.70775e-07, global = 2.32937e-08, cumulative = -3.45168e-05
DICPCG:  Solving for p_rgh, Initial residual = 0.0195635, Final residual = 0.000795153, No Iterations 12
time step continuity errors : sum local = 1.58409e-07, global = -7.5915e-08, cumulative = -3.45928e-05
DICPCG:  Solving for p_rgh, Initial residual = 0.00419548, Final residual = 9.24631e-08, No Iterations 132
time step continuity errors : sum local = 1.85e-11, global = 7.55135e-14, cumulative = -3.45928e-05
DILUPBiCG:  Solving for epsilon, Initial residual = 0.000484394, Final residual = 1.43688e-10, No Iterations 3
DILUPBiCG:  Solving for Rxx, Initial residual = 0.00362727, Final residual = 2.97682e-05, No Iterations 1
DILUPBiCG:  Solving for Rxy, Initial residual = 0.0857673, Final residual = 0.0001418, No Iterations 1
DILUPBiCG:  Solving for Rxz, Initial residual = 0.100018, Final residual = 0.000188375, No Iterations 1
DILUPBiCG:  Solving for Ryy, Initial residual = 0.00336361, Final residual = 2.53555e-05, No Iterations 1
DILUPBiCG:  Solving for Ryz, Initial residual = 0.125244, Final residual = 0.000914483, No Iterations 1
DILUPBiCG:  Solving for Rzz, Initial residual = 0.00336291, Final residual = 2.5532e-05, No Iterations 1
Moving particles.

ExecutionTime = 17.15 s  ClockTime = 17 s

Courant Number mean: 0.00232085 max: 0.547091
Interface Courant Number mean: 0.000146214 max: 0.226034
Time = 9e-06

DILUPBiCG:  Solving for alpha1, Initial residual = 0.00021737, Final residual = 2.25738e-08, No Iterations 1
DILUPBiCG:  Solving for alpha1, Initial residual = 1.39332e-05, Final residual = 5.71273e-09, No Iterations 1
MULES: max(alpha1 - 1) = 2.27928e-07 min(alpha1) = -4.46135e-05
DILUPBiCG:  Solving for alpha1, Initial residual = 2.3118e-07, Final residual = 4.23468e-10, No Iterations 1
Phase-1 volume fraction = 0.0017883  Min(alpha1) = -5.89476e-06  Max(alpha1) = 1
DILUPBiCG:  Solving for alpha1, Initial residual = 0.000216565, Final residual = 2.46331e-08, No Iterations 1
DILUPBiCG:  Solving for alpha1, Initial residual = 1.27074e-05, Final residual = 6.04241e-09, No Iterations 1
MULES: max(alpha1 - 1) = 2.26869e-07 min(alpha1) = -4.12707e-05
DILUPBiCG:  Solving for alpha1, Initial residual = 2.33886e-07, Final residual = 4.29287e-10, No Iterations 1
Phase-1 volume fraction = 0.00180063  Min(alpha1) = -5.2725e-06  Max(alpha1) = 1
DILUPBiCG:  Solving for alpha1, Initial residual = 0.000215773, Final residual = 2.68238e-08, No Iterations 1
DILUPBiCG:  Solving for alpha1, Initial residual = 1.19212e-05, Final residual = 6.37463e-09, No Iterations 1
MULES: max(alpha1 - 1) = 2.25815e-07 min(alpha1) = -3.83496e-05
DILUPBiCG:  Solving for alpha1, Initial residual = 2.21015e-07, Final residual = 4.06716e-10, No Iterations 1
Phase-1 volume fraction = 0.00181297  Min(alpha1) = -4.53818e-06  Max(alpha1) = 1
DILUPBiCG:  Solving for T, Initial residual = 0.0583106, Final residual = 9.42236e-09, No Iterations 3
DICPCG:  Solving for p_rgh, Initial residual = 0.0495906, Final residual = 0.00242237, No Iterations 11
time step continuity errors : sum local = 4.62385e-07, global = 1.80512e-07, cumulative = -3.44123e-05
DICPCG:  Solving for p_rgh, Initial residual = 0.0172334, Final residual = 0.000807539, No Iterations 12
time step continuity errors : sum local = 1.54391e-07, global = 6.96257e-08, cumulative = -3.43426e-05
DICPCG:  Solving for p_rgh, Initial residual = 0.00344235, Final residual = 8.66662e-08, No Iterations 126
time step continuity errors : sum local = 1.65018e-11, global = 1.0248e-13, cumulative = -3.43426e-05
DILUPBiCG:  Solving for epsilon, Initial residual = 0.000421015, Final residual = 2.42832e-10, No Iterations 3
DILUPBiCG:  Solving for Rxx, Initial residual = 0.00325208, Final residual = 2.57088e-05, No Iterations 1
DILUPBiCG:  Solving for Rxy, Initial residual = 0.0752773, Final residual = 0.00013604, No Iterations 1
DILUPBiCG:  Solving for Rxz, Initial residual = 0.0875688, Final residual = 0.00018628, No Iterations 1
DILUPBiCG:  Solving for Ryy, Initial residual = 0.00299688, Final residual = 2.20855e-05, No Iterations 1
DILUPBiCG:  Solving for Ryz, Initial residual = 0.101713, Final residual = 0.000713206, No Iterations 1
DILUPBiCG:  Solving for Rzz, Initial residual = 0.00299606, Final residual = 2.22404e-05, No Iterations 1
Moving particles.

ExecutionTime = 18.94 s  ClockTime = 19 s

Courant Number mean: 0.00236827 max: 0.549981
Interface Courant Number mean: 0.000139045 max: 0.225661
Time = 1e-05

DILUPBiCG:  Solving for alpha1, Initial residual = 0.000215057, Final residual = 2.02505e-08, No Iterations 1
DILUPBiCG:  Solving for alpha1, Initial residual = 1.14176e-05, Final residual = 4.99795e-09, No Iterations 1
MULES: max(alpha1 - 1) = 2.24716e-07 min(alpha1) = -3.63262e-05
DILUPBiCG:  Solving for alpha1, Initial residual = 2.0026e-07, Final residual = 3.378e-10, No Iterations 1
Phase-1 volume fraction = 0.0018253  Min(alpha1) = -4.74919e-06  Max(alpha1) = 1
DILUPBiCG:  Solving for alpha1, Initial residual = 0.000214301, Final residual = 2.17457e-08, No Iterations 1
DILUPBiCG:  Solving for alpha1, Initial residual = 1.25653e-05, Final residual = 5.27445e-09, No Iterations 1
MULES: max(alpha1 - 1) = 2.23623e-07 min(alpha1) = -3.54264e-05
DILUPBiCG:  Solving for alpha1, Initial residual = 1.52995e-07, Final residual = 2.58081e-10, No Iterations 1
Phase-1 volume fraction = 0.00183763  Min(alpha1) = -4.75581e-06  Max(alpha1) = 1
DILUPBiCG:  Solving for alpha1, Initial residual = 0.000213552, Final residual = 2.33793e-08, No Iterations 1
DILUPBiCG:  Solving for alpha1, Initial residual = 1.5861e-05, Final residual = 5.68995e-09, No Iterations 1
MULES: max(alpha1 - 1) = 2.22535e-07 min(alpha1) = -3.29701e-05
DILUPBiCG:  Solving for alpha1, Initial residual = 1.15624e-07, Final residual = 1.89393e-10, No Iterations 1
Phase-1 volume fraction = 0.00184997  Min(alpha1) = -4.77337e-06  Max(alpha1) = 1
DILUPBiCG:  Solving for T, Initial residual = 0.0522885, Final residual = 8.89308e-09, No Iterations 3
DICPCG:  Solving for p_rgh, Initial residual = 0.0627281, Final residual = 0.00263357, No Iterations 10
time step continuity errors : sum local = 4.74608e-07, global = 1.31038e-07, cumulative = -3.42116e-05
DICPCG:  Solving for p_rgh, Initial residual = 0.0180752, Final residual = 0.000855779, No Iterations 12
time step continuity errors : sum local = 1.54125e-07, global = 4.78539e-08, cumulative = -3.41637e-05
DICPCG:  Solving for p_rgh, Initial residual = 0.00331088, Final residual = 9.80983e-08, No Iterations 127
time step continuity errors : sum local = 1.75733e-11, global = 1.10075e-13, cumulative = -3.41637e-05
DILUPBiCG:  Solving for epsilon, Initial residual = 0.000378191, Final residual = 2.19162e-09, No Iterations 3
DILUPBiCG:  Solving for Rxx, Initial residual = 0.00295687, Final residual = 2.28094e-05, No Iterations 1
DILUPBiCG:  Solving for Rxy, Initial residual = 0.0671336, Final residual = 0.000147916, No Iterations 1
DILUPBiCG:  Solving for Rxz, Initial residual = 0.0779797, Final residual = 0.000208061, No Iterations 1
DILUPBiCG:  Solving for Ryy, Initial residual = 0.00270852, Final residual = 1.96402e-05, No Iterations 1
DILUPBiCG:  Solving for Ryz, Initial residual = 0.0848499, Final residual = 0.00057114, No Iterations 1
DILUPBiCG:  Solving for Rzz, Initial residual = 0.00270758, Final residual = 1.97886e-05, No Iterations 1
Moving particles.

ExecutionTime = 24.4 s  ClockTime = 24 s

Courant Number mean: 0.00240946 max: 0.559825
Interface Courant Number mean: 0.000137824 max: 0.257184
Time = 1.1e-05

DILUPBiCG:  Solving for alpha1, Initial residual = 0.000212832, Final residual = 1.87409e-08, No Iterations 1
DILUPBiCG:  Solving for alpha1, Initial residual = 1.92292e-05, Final residual = 5.05896e-09, No Iterations 1
MULES: max(alpha1 - 1) = 2.21435e-07 min(alpha1) = -3.14987e-05
DILUPBiCG:  Solving for alpha1, Initial residual = 9.85514e-08, Final residual = 1.61755e-10, No Iterations 1
Phase-1 volume fraction = 0.0018623  Min(alpha1) = -4.96492e-06  Max(alpha1) = 1
DILUPBiCG:  Solving for alpha1, Initial residual = 0.000212088, Final residual = 2.01732e-08, No Iterations 1
DILUPBiCG:  Solving for alpha1, Initial residual = 2.21718e-05, Final residual = 5.60437e-09, No Iterations 1
MULES: max(alpha1 - 1) = 2.21045e-07 min(alpha1) = -2.75608e-05
DILUPBiCG:  Solving for alpha1, Initial residual = 9.10285e-08, Final residual = 1.67224e-10, No Iterations 1
Phase-1 volume fraction = 0.00187463  Min(alpha1) = -4.72026e-06  Max(alpha1) = 1
DILUPBiCG:  Solving for alpha1, Initial residual = 0.000211357, Final residual = 2.19044e-08, No Iterations 1
DILUPBiCG:  Solving for alpha1, Initial residual = 2.34284e-05, Final residual = 6.20431e-09, No Iterations 1
MULES: max(alpha1 - 1) = 2.2058e-07 min(alpha1) = -2.73188e-05
DILUPBiCG:  Solving for alpha1, Initial residual = 9.30338e-08, Final residual = 1.84726e-10, No Iterations 1
Phase-1 volume fraction = 0.00188696  Min(alpha1) = -4.33003e-06  Max(alpha1) = 1
DILUPBiCG:  Solving for T, Initial residual = 0.0473443, Final residual = 1.13849e-08, No Iterations 3
DICPCG:  Solving for p_rgh, Initial residual = 0.0692892, Final residual = 0.00284558, No Iterations 6
time step continuity errors : sum local = 4.90527e-07, global = 7.36123e-09, cumulative = -3.41564e-05
DICPCG:  Solving for p_rgh, Initial residual = 0.0194539, Final residual = 0.000806358, No Iterations 24
time step continuity errors : sum local = 1.41333e-07, global = -2.4785e-08, cumulative = -3.41812e-05
DICPCG:  Solving for p_rgh, Initial residual = 0.0042244, Final residual = 9.06589e-08, No Iterations 132
time step continuity errors : sum local = 1.48729e-11, global = 2.29907e-14, cumulative = -3.41812e-05
DILUPBiCG:  Solving for epsilon, Initial residual = 0.000347006, Final residual = 2.79242e-10, No Iterations 3
DILUPBiCG:  Solving for Rxx, Initial residual = 0.00271745, Final residual = 2.05605e-05, No Iterations 1
DILUPBiCG:  Solving for Rxy, Initial residual = 0.0605868, Final residual = 0.000200568, No Iterations 1
DILUPBiCG:  Solving for Rxz, Initial residual = 0.0703054, Final residual = 0.000290097, No Iterations 1
DILUPBiCG:  Solving for Ryy, Initial residual = 0.00247512, Final residual = 1.76874e-05, No Iterations 1
DILUPBiCG:  Solving for Ryz, Initial residual = 0.0722895, Final residual = 0.000467921, No Iterations 1
DILUPBiCG:  Solving for Rzz, Initial residual = 0.0024741, Final residual = 1.78261e-05, No Iterations 1
Moving particles.

ExecutionTime = 26.24 s  ClockTime = 26 s

Courant Number mean: 0.00245501 max: 0.563483
Interface Courant Number mean: 0.000147044 max: 0.243905
Time = 1.2e-05

DILUPBiCG:  Solving for alpha1, Initial residual = 0.000210806, Final residual = 1.84534e-08, No Iterations 1
DILUPBiCG:  Solving for alpha1, Initial residual = 2.24968e-05, Final residual = 5.45169e-09, No Iterations 1
MULES: max(alpha1 - 1) = 2.20028e-07 min(alpha1) = -3.31364e-05
DILUPBiCG:  Solving for alpha1, Initial residual = 1.16626e-07, Final residual = 2.27509e-10, No Iterations 1
Phase-1 volume fraction = 0.0018993  Min(alpha1) = -3.72225e-06  Max(alpha1) = 1
DILUPBiCG:  Solving for alpha1, Initial residual = 0.000210102, Final residual = 2.02086e-08, No Iterations 1
DILUPBiCG:  Solving for alpha1, Initial residual = 2.13036e-05, Final residual = 5.78386e-09, No Iterations 1
MULES: max(alpha1 - 1) = 2.19406e-07 min(alpha1) = -3.5886e-05
DILUPBiCG:  Solving for alpha1, Initial residual = 1.28232e-07, Final residual = 2.51136e-10, No Iterations 1
Phase-1 volume fraction = 0.00191163  Min(alpha1) = -4.04013e-06  Max(alpha1) = 1
DILUPBiCG:  Solving for alpha1, Initial residual = 0.000209401, Final residual = 2.22879e-08, No Iterations 1
DILUPBiCG:  Solving for alpha1, Initial residual = 1.9694e-05, Final residual = 6.09391e-09, No Iterations 1
MULES: max(alpha1 - 1) = 2.18724e-07 min(alpha1) = -3.82679e-05
DILUPBiCG:  Solving for alpha1, Initial residual = 1.39847e-07, Final residual = 2.73538e-10, No Iterations 1
Phase-1 volume fraction = 0.00192396  Min(alpha1) = -4.32163e-06  Max(alpha1) = 1
DILUPBiCG:  Solving for T, Initial residual = 0.0432466, Final residual = 1.03534e-08, No Iterations 3
DICPCG:  Solving for p_rgh, Initial residual = 0.0674501, Final residual = 0.00306962, No Iterations 5
time step continuity errors : sum local = 5.01616e-07, global = 9.93127e-09, cumulative = -3.41712e-05
DICPCG:  Solving for p_rgh, Initial residual = 0.0204078, Final residual = 0.000857239, No Iterations 24
time step continuity errors : sum local = 1.43496e-07, global = -3.0129e-08, cumulative = -3.42014e-05
DICPCG:  Solving for p_rgh, Initial residual = 0.00455868, Final residual = 8.76322e-08, No Iterations 129
time step continuity errors : sum local = 1.43088e-11, global = -2.63989e-14, cumulative = -3.42014e-05
DILUPBiCG:  Solving for epsilon, Initial residual = 0.000323084, Final residual = 1.83837e-10, No Iterations 3
DILUPBiCG:  Solving for Rxx, Initial residual = 0.00251872, Final residual = 1.86704e-05, No Iterations 1
DILUPBiCG:  Solving for Rxy, Initial residual = 0.055223, Final residual = 0.00079662, No Iterations 1
DILUPBiCG:  Solving for Rxz, Initial residual = 0.0640671, Final residual = 0.00106992, No Iterations 1
DILUPBiCG:  Solving for Ryy, Initial residual = 0.00228194, Final residual = 1.60532e-05, No Iterations 1
DILUPBiCG:  Solving for Ryz, Initial residual = 0.0626894, Final residual = 0.00039448, No Iterations 1
DILUPBiCG:  Solving for Rzz, Initial residual = 0.00228084, Final residual = 1.61889e-05, No Iterations 1
Moving particles.

ExecutionTime = 28.05 s  ClockTime = 28 s

Courant Number mean: 0.00250584 max: 0.55361
Interface Courant Number mean: 0.000145577 max: 0.232526
Time = 1.3e-05

DILUPBiCG:  Solving for alpha1, Initial residual = 0.000208811, Final residual = 1.84858e-08, No Iterations 1
DILUPBiCG:  Solving for alpha1, Initial residual = 1.73025e-05, Final residual = 4.87623e-09, No Iterations 1
MULES: max(alpha1 - 1) = 2.18002e-07 min(alpha1) = -4.17217e-05
DILUPBiCG:  Solving for alpha1, Initial residual = 1.71382e-07, Final residual = 3.0527e-10, No Iterations 1
Phase-1 volume fraction = 0.0019363  Min(alpha1) = -5.28895e-06  Max(alpha1) = 1
DILUPBiCG:  Solving for alpha1, Initial residual = 0.000208109, Final residual = 2.03876e-08, No Iterations 1
DILUPBiCG:  Solving for alpha1, Initial residual = 1.55596e-05, Final residual = 5.14808e-09, No Iterations 1
MULES: max(alpha1 - 1) = 2.17236e-07 min(alpha1) = -4.05566e-05
DILUPBiCG:  Solving for alpha1, Initial residual = 1.81771e-07, Final residual = 3.24164e-10, No Iterations 1
Phase-1 volume fraction = 0.00194863  Min(alpha1) = -5.19143e-06  Max(alpha1) = 1
DILUPBiCG:  Solving for alpha1, Initial residual = 0.000207417, Final residual = 2.24883e-08, No Iterations 1
DILUPBiCG:  Solving for alpha1, Initial residual = 1.41126e-05, Final residual = 5.44373e-09, No Iterations 1
MULES: max(alpha1 - 1) = 2.16431e-07 min(alpha1) = -3.80547e-05
DILUPBiCG:  Solving for alpha1, Initial residual = 1.8616e-07, Final residual = 3.35022e-10, No Iterations 1
Phase-1 volume fraction = 0.00196096  Min(alpha1) = -4.64247e-06  Max(alpha1) = 1
DILUPBiCG:  Solving for T, Initial residual = 0.0396834, Final residual = 5.24898e-09, No Iterations 3
DICPCG:  Solving for p_rgh, Initial residual = 0.0590697, Final residual = 0.00270456, No Iterations 9
time step continuity errors : sum local = 4.29992e-07, global = 8.78255e-08, cumulative = -3.41135e-05
DICPCG:  Solving for p_rgh, Initial residual = 0.0187977, Final residual = 0.000929005, No Iterations 12
time step continuity errors : sum local = 1.48381e-07, global = 1.4745e-08, cumulative = -3.40988e-05
DICPCG:  Solving for p_rgh, Initial residual = 0.0037498, Final residual = 8.41908e-08, No Iterations 130
time step continuity errors : sum local = 1.34582e-11, global = -3.07055e-14, cumulative = -3.40988e-05
DILUPBiCG:  Solving for epsilon, Initial residual = 0.000304062, Final residual = 1.47772e-10, No Iterations 3
DILUPBiCG:  Solving for Rxx, Initial residual = 0.00235078, Final residual = 1.70708e-05, No Iterations 1
DILUPBiCG:  Solving for Rxy, Initial residual = 0.0508573, Final residual = 0.000227156, No Iterations 1
DILUPBiCG:  Solving for Rxz, Initial residual = 0.0590088, Final residual = 0.000378413, No Iterations 1
DILUPBiCG:  Solving for Ryy, Initial residual = 0.00211918, Final residual = 1.46776e-05, No Iterations 1
DILUPBiCG:  Solving for Ryz, Initial residual = 0.0551195, Final residual = 0.000470446, No Iterations 1
DILUPBiCG:  Solving for Rzz, Initial residual = 0.00211804, Final residual = 1.48087e-05, No Iterations 1
Moving particles.

ExecutionTime = 29.88 s  ClockTime = 30 s

Courant Number mean: 0.00255344 max: 0.553981
Interface Courant Number mean: 0.000141705 max: 0.225904
Time = 1.4e-05

DILUPBiCG:  Solving for alpha1, Initial residual = 0.000206803, Final residual = 1.78126e-08, No Iterations 1
DILUPBiCG:  Solving for alpha1, Initial residual = 1.26852e-05, Final residual = 4.33228e-09, No Iterations 1
MULES: max(alpha1 - 1) = 2.15536e-07 min(alpha1) = -3.75245e-05
DILUPBiCG:  Solving for alpha1, Initial residual = 1.97544e-07, Final residual = 3.30868e-10, No Iterations 1
Phase-1 volume fraction = 0.0019733  Min(alpha1) = -4.58142e-06  Max(alpha1) = 1
DILUPBiCG:  Solving for alpha1, Initial residual = 0.000206145, Final residual = 1.94227e-08, No Iterations 1
DILUPBiCG:  Solving for alpha1, Initial residual = 1.18721e-05, Final residual = 4.61808e-09, No Iterations 1
MULES: max(alpha1 - 1) = 2.14626e-07 min(alpha1) = -3.59654e-05
DILUPBiCG:  Solving for alpha1, Initial residual = 1.8085e-07, Final residual = 3.08696e-10, No Iterations 1
Phase-1 volume fraction = 0.00198563  Min(alpha1) = -4.37814e-06  Max(alpha1) = 1
DILUPBiCG:  Solving for alpha1, Initial residual = 0.000205493, Final residual = 2.11553e-08, No Iterations 1
DILUPBiCG:  Solving for alpha1, Initial residual = 1.14784e-05, Final residual = 4.91932e-09, No Iterations 1
MULES: max(alpha1 - 1) = 2.13703e-07 min(alpha1) = -3.40314e-05
DILUPBiCG:  Solving for alpha1, Initial residual = 1.52101e-07, Final residual = 2.65484e-10, No Iterations 1
Phase-1 volume fraction = 0.00199796  Min(alpha1) = -4.47847e-06  Max(alpha1) = 1
DILUPBiCG:  Solving for T, Initial residual = 0.0367843, Final residual = 4.75802e-09, No Iterations 3
DICPCG:  Solving for p_rgh, Initial residual = 0.0586355, Final residual = 0.0024421, No Iterations 11
time step continuity errors : sum local = 3.7399e-07, global = 1.28591e-07, cumulative = -3.39702e-05
DICPCG:  Solving for p_rgh, Initial residual = 0.0190874, Final residual = 0.00075009, No Iterations 13
time step continuity errors : sum local = 1.15296e-07, global = 4.53394e-08, cumulative = -3.39249e-05
DICPCG:  Solving for p_rgh, Initial residual = 0.003444, Final residual = 9.04985e-08, No Iterations 126
time step continuity errors : sum local = 1.39356e-11, global = 8.59679e-14, cumulative = -3.39249e-05
DILUPBiCG:  Solving for epsilon, Initial residual = 0.000288385, Final residual = 1.24914e-10, No Iterations 3
DILUPBiCG:  Solving for Rxx, Initial residual = 0.00220666, Final residual = 1.56708e-05, No Iterations 1
DILUPBiCG:  Solving for Rxy, Initial residual = 0.0469022, Final residual = 9.99126e-05, No Iterations 1
DILUPBiCG:  Solving for Rxz, Initial residual = 0.0544053, Final residual = 0.00015301, No Iterations 1
DILUPBiCG:  Solving for Ryy, Initial residual = 0.00197999, Final residual = 1.34803e-05, No Iterations 1
DILUPBiCG:  Solving for Ryz, Initial residual = 0.0490074, Final residual = 0.000305274, No Iterations 1
DILUPBiCG:  Solving for Rzz, Initial residual = 0.00197881, Final residual = 1.36056e-05, No Iterations 1
Moving particles.

ExecutionTime = 31.72 s  ClockTime = 32 s

Courant Number mean: 0.00259498 max: 0.553927
Interface Courant Number mean: 0.000148515 max: 0.228073
Time = 1.5e-05

DILUPBiCG:  Solving for alpha1, Initial residual = 0.000204843, Final residual = 1.67025e-08, No Iterations 1
DILUPBiCG:  Solving for alpha1, Initial residual = 1.24525e-05, Final residual = 4.16702e-09, No Iterations 1
MULES: max(alpha1 - 1) = 2.12911e-07 min(alpha1) = -3.4816e-05
DILUPBiCG:  Solving for alpha1, Initial residual = 1.34852e-07, Final residual = 2.21525e-10, No Iterations 1
Phase-1 volume fraction = 0.0020103  Min(alpha1) = -5.03763e-06  Max(alpha1) = 1
DILUPBiCG:  Solving for alpha1, Initial residual = 0.000204169, Final residual = 1.79846e-08, No Iterations 1
DILUPBiCG:  Solving for alpha1, Initial residual = 1.40213e-05, Final residual = 4.49369e-09, No Iterations 1
MULES: max(alpha1 - 1) = 2.12493e-07 min(alpha1) = -3.41475e-05
DILUPBiCG:  Solving for alpha1, Initial residual = 1.12699e-07, Final residual = 1.83127e-10, No Iterations 1
Phase-1 volume fraction = 0.00202263  Min(alpha1) = -4.79537e-06  Max(alpha1) = 1
DILUPBiCG:  Solving for alpha1, Initial residual = 0.000203493, Final residual = 1.94416e-08, No Iterations 1
DILUPBiCG:  Solving for alpha1, Initial residual = 1.60889e-05, Final residual = 4.88509e-09, No Iterations 1
MULES: max(alpha1 - 1) = 2.12003e-07 min(alpha1) = -3.26252e-05
DILUPBiCG:  Solving for alpha1, Initial residual = 9.66047e-08, Final residual = 1.60844e-10, No Iterations 1
Phase-1 volume fraction = 0.00203496  Min(alpha1) = -4.87904e-06  Max(alpha1) = 1
DILUPBiCG:  Solving for T, Initial residual = 0.0344037, Final residual = 4.08971e-09, No Iterations 3
DICPCG:  Solving for p_rgh, Initial residual = 0.0585183, Final residual = 0.00228474, No Iterations 10
time step continuity errors : sum local = 3.44133e-07, global = 7.09595e-08, cumulative = -3.38539e-05
DICPCG:  Solving for p_rgh, Initial residual = 0.0192746, Final residual = 0.000874556, No Iterations 12
time step continuity errors : sum local = 1.33211e-07, global = 1.09317e-09, cumulative = -3.38528e-05
DICPCG:  Solving for p_rgh, Initial residual = 0.00362307, Final residual = 9.92482e-08, No Iterations 129
time step continuity errors : sum local = 1.51827e-11, global = -1.6332e-13, cumulative = -3.38528e-05
DILUPBiCG:  Solving for epsilon, Initial residual = 0.000275101, Final residual = 1.09236e-10, No Iterations 3
DILUPBiCG:  Solving for Rxx, Initial residual = 0.00208136, Final residual = 1.44467e-05, No Iterations 1
DILUPBiCG:  Solving for Rxy, Initial residual = 0.0435477, Final residual = 7.13009e-05, No Iterations 1
DILUPBiCG:  Solving for Rxz, Initial residual = 0.0505245, Final residual = 0.000106053, No Iterations 1
DILUPBiCG:  Solving for Ryy, Initial residual = 0.00185946, Final residual = 1.24404e-05, No Iterations 1
DILUPBiCG:  Solving for Ryz, Initial residual = 0.0439619, Final residual = 0.000252524, No Iterations 1
DILUPBiCG:  Solving for Rzz, Initial residual = 0.00185825, Final residual = 1.25547e-05, No Iterations 1
Moving particles.

ExecutionTime = 33.54 s  ClockTime = 34 s

Courant Number mean: 0.0026347 max: 0.558932
Interface Courant Number mean: 0.000150298 max: 0.254941
Time = 1.6e-05

DILUPBiCG:  Solving for alpha1, Initial residual = 0.000202792, Final residual = 1.592e-08, No Iterations 1
DILUPBiCG:  Solving for alpha1, Initial residual = 1.75501e-05, Final residual = 4.32681e-09, No Iterations 1
MULES: max(alpha1 - 1) = 2.11473e-07 min(alpha1) = -3.1936e-05
DILUPBiCG:  Solving for alpha1, Initial residual = 9.63955e-08, Final residual = 1.56712e-10, No Iterations 1
Phase-1 volume fraction = 0.00204729  Min(alpha1) = -5.08826e-06  Max(alpha1) = 1
DILUPBiCG:  Solving for alpha1, Initial residual = 0.000202122, Final residual = 1.72791e-08, No Iterations 1
DILUPBiCG:  Solving for alpha1, Initial residual = 1.90093e-05, Final residual = 4.69911e-09, No Iterations 1
MULES: max(alpha1 - 1) = 2.10885e-07 min(alpha1) = -2.9997e-05
DILUPBiCG:  Solving for alpha1, Initial residual = 9.58255e-08, Final residual = 1.64976e-10, No Iterations 1
Phase-1 volume fraction = 0.00205963  Min(alpha1) = -4.73431e-06  Max(alpha1) = 1
DILUPBiCG:  Solving for alpha1, Initial residual = 0.00020146, Final residual = 1.88754e-08, No Iterations 1
DILUPBiCG:  Solving for alpha1, Initial residual = 1.97551e-05, Final residual = 5.1209e-09, No Iterations 1
MULES: max(alpha1 - 1) = 2.10247e-07 min(alpha1) = -3.27139e-05
DILUPBiCG:  Solving for alpha1, Initial residual = 9.89449e-08, Final residual = 1.78827e-10, No Iterations 1
Phase-1 volume fraction = 0.00207196  Min(alpha1) = -4.24503e-06  Max(alpha1) = 1
DILUPBiCG:  Solving for T, Initial residual = 0.0322784, Final residual = 3.71536e-09, No Iterations 3
DICPCG:  Solving for p_rgh, Initial residual = 0.0627293, Final residual = 0.00296807, No Iterations 6
time step continuity errors : sum local = 4.53771e-07, global = 7.1204e-09, cumulative = -3.38457e-05
DICPCG:  Solving for p_rgh, Initial residual = 0.0193935, Final residual = 0.000790235, No Iterations 13
time step continuity errors : sum local = 1.24332e-07, global = -5.46413e-08, cumulative = -3.39003e-05
DICPCG:  Solving for p_rgh, Initial residual = 0.00376845, Final residual = 9.48649e-08, No Iterations 131
time step continuity errors : sum local = 1.50524e-11, global = -8.32065e-14, cumulative = -3.39003e-05
DILUPBiCG:  Solving for epsilon, Initial residual = 0.00026371, Final residual = 9.64916e-11, No Iterations 3
DILUPBiCG:  Solving for Rxx, Initial residual = 0.00197118, Final residual = 1.33545e-05, No Iterations 1
DILUPBiCG:  Solving for Rxy, Initial residual = 0.0406416, Final residual = 5.9214e-05, No Iterations 1
DILUPBiCG:  Solving for Rxz, Initial residual = 0.047165, Final residual = 8.55035e-05, No Iterations 1
DILUPBiCG:  Solving for Ryy, Initial residual = 0.00175393, Final residual = 1.15223e-05, No Iterations 1
DILUPBiCG:  Solving for Ryz, Initial residual = 0.0397489, Final residual = 0.000218326, No Iterations 1
DILUPBiCG:  Solving for Rzz, Initial residual = 0.00175269, Final residual = 1.16258e-05, No Iterations 1
Moving particles.

ExecutionTime = 35.35 s  ClockTime = 35 s

Courant Number mean: 0.00267756 max: 0.560574
Interface Courant Number mean: 0.000148966 max: 0.241517
Time = 1.7e-05

DILUPBiCG:  Solving for alpha1, Initial residual = 0.000200961, Final residual = 1.59851e-08, No Iterations 1
DILUPBiCG:  Solving for alpha1, Initial residual = 1.91109e-05, Final residual = 4.42663e-09, No Iterations 1
MULES: max(alpha1 - 1) = 2.0956e-07 min(alpha1) = -3.73799e-05
DILUPBiCG:  Solving for alpha1, Initial residual = 1.21084e-07, Final residual = 2.09564e-10, No Iterations 1
Phase-1 volume fraction = 0.00208429  Min(alpha1) = -4.47256e-06  Max(alpha1) = 1
DILUPBiCG:  Solving for alpha1, Initial residual = 0.000200304, Final residual = 1.75337e-08, No Iterations 1
DILUPBiCG:  Solving for alpha1, Initial residual = 1.82098e-05, Final residual = 4.70979e-09, No Iterations 1
MULES: max(alpha1 - 1) = 2.08831e-07 min(alpha1) = -3.94202e-05
DILUPBiCG:  Solving for alpha1, Initial residual = 1.31214e-07, Final residual = 2.29049e-10, No Iterations 1
Phase-1 volume fraction = 0.00209663  Min(alpha1) = -4.73614e-06  Max(alpha1) = 1
DILUPBiCG:  Solving for alpha1, Initial residual = 0.000199648, Final residual = 1.93339e-08, No Iterations 1
DILUPBiCG:  Solving for alpha1, Initial residual = 1.69443e-05, Final residual = 4.97056e-09, No Iterations 1
MULES: max(alpha1 - 1) = 2.08066e-07 min(alpha1) = -3.99092e-05
DILUPBiCG:  Solving for alpha1, Initial residual = 1.41589e-07, Final residual = 2.47677e-10, No Iterations 1
Phase-1 volume fraction = 0.00210896  Min(alpha1) = -4.82973e-06  Max(alpha1) = 1
DILUPBiCG:  Solving for T, Initial residual = 0.0303241, Final residual = 3.44293e-09, No Iterations 3
DICPCG:  Solving for p_rgh, Initial residual = 0.0559892, Final residual = 0.00236665, No Iterations 7
time step continuity errors : sum local = 3.77117e-07, global = 1.77513e-08, cumulative = -3.38826e-05
DICPCG:  Solving for p_rgh, Initial residual = 0.0176672, Final residual = 0.00071303, No Iterations 13
time step continuity errors : sum local = 1.1665e-07, global = -3.63884e-08, cumulative = -3.3919e-05
DICPCG:  Solving for p_rgh, Initial residual = 0.00343126, Final residual = 8.53027e-08, No Iterations 129
time step continuity errors : sum local = 1.40729e-11, global = -5.75611e-14, cumulative = -3.3919e-05
DILUPBiCG:  Solving for epsilon, Initial residual = 0.000253772, Final residual = 8.63728e-11, No Iterations 3
DILUPBiCG:  Solving for Rxx, Initial residual = 0.0018734, Final residual = 1.23797e-05, No Iterations 1
DILUPBiCG:  Solving for Rxy, Initial residual = 0.0380951, Final residual = 5.16986e-05, No Iterations 1
DILUPBiCG:  Solving for Rxz, Initial residual = 0.0442291, Final residual = 7.32441e-05, No Iterations 1
DILUPBiCG:  Solving for Ryy, Initial residual = 0.00166072, Final residual = 1.07072e-05, No Iterations 1
DILUPBiCG:  Solving for Ryz, Initial residual = 0.036109, Final residual = 0.000191265, No Iterations 1
DILUPBiCG:  Solving for Rzz, Initial residual = 0.00165946, Final residual = 1.08008e-05, No Iterations 1
Moving particles.

ExecutionTime = 37.16 s  ClockTime = 37 s

Courant Number mean: 0.0027222 max: 0.55477
Interface Courant Number mean: 0.000149012 max: 0.231803
Time = 1.8e-05

DILUPBiCG:  Solving for alpha1, Initial residual = 0.000199105, Final residual = 1.60844e-08, No Iterations 1
DILUPBiCG:  Solving for alpha1, Initial residual = 1.51653e-05, Final residual = 4.05155e-09, No Iterations 1
MULES: max(alpha1 - 1) = 2.07622e-07 min(alpha1) = -3.77343e-05
DILUPBiCG:  Solving for alpha1, Initial residual = 1.65005e-07, Final residual = 2.6937e-10, No Iterations 1
Phase-1 volume fraction = 0.00212129  Min(alpha1) = -4.8159e-06  Max(alpha1) = 1
DILUPBiCG:  Solving for alpha1, Initial residual = 0.000198467, Final residual = 1.77272e-08, No Iterations 1
DILUPBiCG:  Solving for alpha1, Initial residual = 1.39813e-05, Final residual = 4.28395e-09, No Iterations 1
MULES: max(alpha1 - 1) = 2.07282e-07 min(alpha1) = -3.67396e-05
DILUPBiCG:  Solving for alpha1, Initial residual = 1.67903e-07, Final residual = 2.79035e-10, No Iterations 1
Phase-1 volume fraction = 0.00213363  Min(alpha1) = -4.37428e-06  Max(alpha1) = 1
DILUPBiCG:  Solving for alpha1, Initial residual = 0.000197852, Final residual = 1.95677e-08, No Iterations 1
DILUPBiCG:  Solving for alpha1, Initial residual = 1.29359e-05, Final residual = 4.53943e-09, No Iterations 1
MULES: max(alpha1 - 1) = 2.06872e-07 min(alpha1) = -3.52319e-05
DILUPBiCG:  Solving for alpha1, Initial residual = 1.62291e-07, Final residual = 2.76889e-10, No Iterations 1
Phase-1 volume fraction = 0.00214596  Min(alpha1) = -4.12005e-06  Max(alpha1) = 1
DILUPBiCG:  Solving for T, Initial residual = 0.0285121, Final residual = 3.23703e-09, No Iterations 3
DICPCG:  Solving for p_rgh, Initial residual = 0.0524876, Final residual = 0.00213768, No Iterations 10
time step continuity errors : sum local = 3.49611e-07, global = 7.80759e-08, cumulative = -3.38409e-05
DICPCG:  Solving for p_rgh, Initial residual = 0.0169671, Final residual = 0.000711042, No Iterations 13
time step continuity errors : sum local = 1.1766e-07, global = 9.73018e-09, cumulative = -3.38312e-05
DICPCG:  Solving for p_rgh, Initial residual = 0.00318988, Final residual = 8.12353e-08, No Iterations 129
time step continuity errors : sum local = 1.35376e-11, global = -1.1908e-13, cumulative = -3.38312e-05
DILUPBiCG:  Solving for epsilon, Initial residual = 0.000245017, Final residual = 7.75345e-11, No Iterations 3
DILUPBiCG:  Solving for Rxx, Initial residual = 0.00178582, Final residual = 1.14993e-05, No Iterations 1
DILUPBiCG:  Solving for Rxy, Initial residual = 0.0358415, Final residual = 4.64071e-05, No Iterations 1
DILUPBiCG:  Solving for Rxz, Initial residual = 0.0416306, Final residual = 6.46216e-05, No Iterations 1
DILUPBiCG:  Solving for Ryy, Initial residual = 0.00157768, Final residual = 9.98719e-06, No Iterations 1
DILUPBiCG:  Solving for Ryz, Initial residual = 0.0330116, Final residual = 0.000168968, No Iterations 1
DILUPBiCG:  Solving for Rzz, Initial residual = 0.0015764, Final residual = 1.00736e-05, No Iterations 1
Moving particles.

ExecutionTime = 38.99 s  ClockTime = 39 s

Courant Number mean: 0.00276511 max: 0.555225
Interface Courant Number mean: 0.000150505 max: 0.226451
Time = 1.9e-05

DILUPBiCG:  Solving for alpha1, Initial residual = 0.000197329, Final residual = 1.56426e-08, No Iterations 1
DILUPBiCG:  Solving for alpha1, Initial residual = 1.17853e-05, Final residual = 3.76295e-09, No Iterations 1
MULES: max(alpha1 - 1) = 2.06403e-07 min(alpha1) = -3.55462e-05
DILUPBiCG:  Solving for alpha1, Initial residual = 1.58431e-07, Final residual = 2.59858e-10, No Iterations 1
Phase-1 volume fraction = 0.00215829  Min(alpha1) = -4.45065e-06  Max(alpha1) = 1
DILUPBiCG:  Solving for alpha1, Initial residual = 0.00019672, Final residual = 1.71202e-08, No Iterations 1
DILUPBiCG:  Solving for alpha1, Initial residual = 1.15354e-05, Final residual = 4.01683e-09, No Iterations 1
MULES: max(alpha1 - 1) = 2.05875e-07 min(alpha1) = -3.32517e-05
DILUPBiCG:  Solving for alpha1, Initial residual = 1.40035e-07, Final residual = 2.37274e-10, No Iterations 1
Phase-1 volume fraction = 0.00217063  Min(alpha1) = -4.62681e-06  Max(alpha1) = 1
DILUPBiCG:  Solving for alpha1, Initial residual = 0.00019611, Final residual = 1.87561e-08, No Iterations 1
DILUPBiCG:  Solving for alpha1, Initial residual = 1.23299e-05, Final residual = 4.29229e-09, No Iterations 1
MULES: max(alpha1 - 1) = 2.05294e-07 min(alpha1) = -3.37632e-05
DILUPBiCG:  Solving for alpha1, Initial residual = 1.23039e-07, Final residual = 2.09522e-10, No Iterations 1
Phase-1 volume fraction = 0.00218296  Min(alpha1) = -4.73522e-06  Max(alpha1) = 1
DILUPBiCG:  Solving for T, Initial residual = 0.0269048, Final residual = 2.94268e-09, No Iterations 3
DICPCG:  Solving for p_rgh, Initial residual = 0.0507923, Final residual = 0.00250605, No Iterations 10
time step continuity errors : sum local = 4.12861e-07, global = 9.24335e-08, cumulative = -3.37387e-05
DICPCG:  Solving for p_rgh, Initial residual = 0.0170143, Final residual = 0.00075261, No Iterations 13
time step continuity errors : sum local = 1.25332e-07, global = 2.71955e-08, cumulative = -3.37115e-05
DICPCG:  Solving for p_rgh, Initial residual = 0.00313154, Final residual = 9.49604e-08, No Iterations 127
time step continuity errors : sum local = 1.59242e-11, global = -1.92523e-15, cumulative = -3.37115e-05
DILUPBiCG:  Solving for epsilon, Initial residual = 0.000237476, Final residual = 9.92721e-09, No Iterations 2
DILUPBiCG:  Solving for Rxx, Initial residual = 0.00170682, Final residual = 1.07117e-05, No Iterations 1
DILUPBiCG:  Solving for Rxy, Initial residual = 0.0338336, Final residual = 4.20868e-05, No Iterations 1
DILUPBiCG:  Solving for Rxz, Initial residual = 0.0393135, Final residual = 5.76945e-05, No Iterations 1
DILUPBiCG:  Solving for Ryy, Initial residual = 0.00150323, Final residual = 9.34378e-06, No Iterations 1
DILUPBiCG:  Solving for Ryz, Initial residual = 0.0303039, Final residual = 0.000150265, No Iterations 1
DILUPBiCG:  Solving for Rzz, Initial residual = 0.00150194, Final residual = 9.41989e-06, No Iterations 1
Moving particles.

ExecutionTime = 40.84 s  ClockTime = 41 s

Courant Number mean: 0.00280501 max: 0.555781
Interface Courant Number mean: 0.000163585 max: 0.26266
Time = 2e-05

DILUPBiCG:  Solving for alpha1, Initial residual = 0.000195544, Final residual = 1.48053e-08, No Iterations 1
DILUPBiCG:  Solving for alpha1, Initial residual = 1.29439e-05, Final residual = 3.73931e-09, No Iterations 1
MULES: max(alpha1 - 1) = 2.04681e-07 min(alpha1) = -3.44548e-05
DILUPBiCG:  Solving for alpha1, Initial residual = 1.15548e-07, Final residual = 1.84621e-10, No Iterations 1
Phase-1 volume fraction = 0.00219529  Min(alpha1) = -4.71903e-06  Max(alpha1) = 1
DILUPBiCG:  Solving for alpha1, Initial residual = 0.000194911, Final residual = 1.6142e-08, No Iterations 1
DILUPBiCG:  Solving for alpha1, Initial residual = 1.42521e-05, Final residual = 4.04265e-09, No Iterations 1
MULES: max(alpha1 - 1) = 2.0403e-07 min(alpha1) = -3.49206e-05
DILUPBiCG:  Solving for alpha1, Initial residual = 1.02501e-07, Final residual = 1.68244e-10, No Iterations 1
Phase-1 volume fraction = 0.00220763  Min(alpha1) = -5.36141e-06  Max(alpha1) = 1
DILUPBiCG:  Solving for alpha1, Initial residual = 0.000194277, Final residual = 1.76549e-08, No Iterations 1
DILUPBiCG:  Solving for alpha1, Initial residual = 1.53267e-05, Final residual = 4.34033e-09, No Iterations 1
MULES: max(alpha1 - 1) = 2.03346e-07 min(alpha1) = -3.35436e-05
DILUPBiCG:  Solving for alpha1, Initial residual = 9.49256e-08, Final residual = 1.55266e-10, No Iterations 1
Phase-1 volume fraction = 0.00221996  Min(alpha1) = -5.20811e-06  Max(alpha1) = 1
DILUPBiCG:  Solving for T, Initial residual = 0.0255633, Final residual = 2.74301e-09, No Iterations 3
DICPCG:  Solving for p_rgh, Initial residual = 0.050166, Final residual = 0.00190205, No Iterations 10
time step continuity errors : sum local = 3.16955e-07, global = 5.80245e-08, cumulative = -3.36535e-05
DICPCG:  Solving for p_rgh, Initial residual = 0.0165239, Final residual = 0.000724347, No Iterations 13
time step continuity errors : sum local = 1.22687e-07, global = -6.25234e-09, cumulative = -3.36598e-05
DICPCG:  Solving for p_rgh, Initial residual = 0.00315687, Final residual = 9.7579e-08, No Iterations 129
time step continuity errors : sum local = 1.66737e-11, global = 1.33976e-13, cumulative = -3.36598e-05
DILUPBiCG:  Solving for epsilon, Initial residual = 0.000231171, Final residual = 9.32368e-09, No Iterations 2
DILUPBiCG:  Solving for Rxx, Initial residual = 0.00163492, Final residual = 9.99707e-06, No Iterations 1
DILUPBiCG:  Solving for Rxy, Initial residual = 0.0320242, Final residual = 3.86115e-05, No Iterations 1
DILUPBiCG:  Solving for Rxz, Initial residual = 0.0372207, Final residual = 5.18693e-05, No Iterations 1
DILUPBiCG:  Solving for Ryy, Initial residual = 0.00143596, Final residual = 8.77403e-06, No Iterations 1
DILUPBiCG:  Solving for Ryz, Initial residual = 0.0279518, Final residual = 0.000134608, No Iterations 1
DILUPBiCG:  Solving for Rzz, Initial residual = 0.00143466, Final residual = 8.83987e-06, No Iterations 1
Moving particles.

ExecutionTime = 46.4 s  ClockTime = 47 s

Courant Number mean: 0.00284482 max: 0.559249
Interface Courant Number mean: 0.000165119 max: 0.253849
Time = 2.1e-05

DILUPBiCG:  Solving for alpha1, Initial residual = 0.000193714, Final residual = 1.4324e-08, No Iterations 1
DILUPBiCG:  Solving for alpha1, Initial residual = 1.5904e-05, Final residual = 3.8345e-09, No Iterations 1
MULES: max(alpha1 - 1) = 2.02617e-07 min(alpha1) = -3.27886e-05
DILUPBiCG:  Solving for alpha1, Initial residual = 9.88881e-08, Final residual = 1.52244e-10, No Iterations 1
Phase-1 volume fraction = 0.00223229  Min(alpha1) = -5.25406e-06  Max(alpha1) = 1
DILUPBiCG:  Solving for alpha1, Initial residual = 0.000193084, Final residual = 1.57078e-08, No Iterations 1
DILUPBiCG:  Solving for alpha1, Initial residual = 1.67406e-05, Final residual = 4.13084e-09, No Iterations 1
MULES: max(alpha1 - 1) = 2.01921e-07 min(alpha1) = -3.41792e-05
DILUPBiCG:  Solving for alpha1, Initial residual = 9.93142e-08, Final residual = 1.58934e-10, No Iterations 1
Phase-1 volume fraction = 0.00224462  Min(alpha1) = -4.86325e-06  Max(alpha1) = 1
DILUPBiCG:  Solving for alpha1, Initial residual = 0.000192459, Final residual = 1.73007e-08, No Iterations 1
DILUPBiCG:  Solving for alpha1, Initial residual = 1.69128e-05, Final residual = 4.42967e-09, No Iterations 1
MULES: max(alpha1 - 1) = 2.015e-07 min(alpha1) = -3.64431e-05
DILUPBiCG:  Solving for alpha1, Initial residual = 1.02339e-07, Final residual = 1.7084e-10, No Iterations 1
Phase-1 volume fraction = 0.00225696  Min(alpha1) = -4.52496e-06  Max(alpha1) = 1
DILUPBiCG:  Solving for T, Initial residual = 0.0243723, Final residual = 2.60212e-09, No Iterations 3
DICPCG:  Solving for p_rgh, Initial residual = 0.0472771, Final residual = 0.00190882, No Iterations 8
time step continuity errors : sum local = 3.27968e-07, global = 2.31758e-08, cumulative = -3.36366e-05
DICPCG:  Solving for p_rgh, Initial residual = 0.0159249, Final residual = 0.000707012, No Iterations 13
time step continuity errors : sum local = 1.24109e-07, global = -3.01122e-08, cumulative = -3.36667e-05
DICPCG:  Solving for p_rgh, Initial residual = 0.00306298, Final residual = 8.65772e-08, No Iterations 130
time step continuity errors : sum local = 1.53319e-11, global = -1.29473e-13, cumulative = -3.36667e-05
DILUPBiCG:  Solving for epsilon, Initial residual = 0.000226211, Final residual = 8.80698e-09, No Iterations 2
DILUPBiCG:  Solving for Rxx, Initial residual = 0.00156914, Final residual = 9.3465e-06, No Iterations 1
DILUPBiCG:  Solving for Rxy, Initial residual = 0.0303859, Final residual = 3.54995e-05, No Iterations 1
DILUPBiCG:  Solving for Rxz, Initial residual = 0.0353223, Final residual = 4.67701e-05, No Iterations 1
DILUPBiCG:  Solving for Ryy, Initial residual = 0.00137492, Final residual = 8.26536e-06, No Iterations 1
DILUPBiCG:  Solving for Ryz, Initial residual = 0.0258637, Final residual = 0.000121168, No Iterations 1
DILUPBiCG:  Solving for Rzz, Initial residual = 0.00137363, Final residual = 8.32535e-06, No Iterations 1
Moving particles.

ExecutionTime = 48.21 s  ClockTime = 49 s

Courant Number mean: 0.00288663 max: 0.558162
Interface Courant Number mean: 0.000170577 max: 0.241112
Time = 2.2e-05

DILUPBiCG:  Solving for alpha1, Initial residual = 0.000192103, Final residual = 1.43513e-08, No Iterations 1
DILUPBiCG:  Solving for alpha1, Initial residual = 1.64875e-05, Final residual = 3.79671e-09, No Iterations 1
MULES: max(alpha1 - 1) = 2.01026e-07 min(alpha1) = -3.95558e-05
DILUPBiCG:  Solving for alpha1, Initial residual = 1.21995e-07, Final residual = 1.9256e-10, No Iterations 1
Phase-1 volume fraction = 0.00226929  Min(alpha1) = -4.91691e-06  Max(alpha1) = 1
DILUPBiCG:  Solving for alpha1, Initial residual = 0.000191488, Final residual = 1.58283e-08, No Iterations 1
DILUPBiCG:  Solving for alpha1, Initial residual = 1.57631e-05, Final residual = 4.03964e-09, No Iterations 1
MULES: max(alpha1 - 1) = 2.00503e-07 min(alpha1) = -3.79038e-05
DILUPBiCG:  Solving for alpha1, Initial residual = 1.30153e-07, Final residual = 2.09118e-10, No Iterations 1
Phase-1 volume fraction = 0.00228162  Min(alpha1) = -4.76349e-06  Max(alpha1) = 1
DILUPBiCG:  Solving for alpha1, Initial residual = 0.000190878, Final residual = 1.75097e-08, No Iterations 1
DILUPBiCG:  Solving for alpha1, Initial residual = 1.49234e-05, Final residual = 4.27365e-09, No Iterations 1
MULES: max(alpha1 - 1) = 1.99936e-07 min(alpha1) = -3.59591e-05
DILUPBiCG:  Solving for alpha1, Initial residual = 1.35978e-07, Final residual = 2.22634e-10, No Iterations 1
Phase-1 volume fraction = 0.00229396  Min(alpha1) = -4.29696e-06  Max(alpha1) = 1
DILUPBiCG:  Solving for T, Initial residual = 0.023234, Final residual = 2.51203e-09, No Iterations 3
DICPCG:  Solving for p_rgh, Initial residual = 0.0460497, Final residual = 0.00203046, No Iterations 8
time step continuity errors : sum local = 3.60301e-07, global = 2.93272e-08, cumulative = -3.36374e-05
DICPCG:  Solving for p_rgh, Initial residual = 0.0150603, Final residual = 0.000623392, No Iterations 13
time step continuity errors : sum local = 1.12558e-07, global = -1.804e-08, cumulative = -3.36554e-05
DICPCG:  Solving for p_rgh, Initial residual = 0.00287683, Final residual = 8.63742e-08, No Iterations 128
time step continuity errors : sum local = 1.5697e-11, global = -9.82627e-14, cumulative = -3.36554e-05
DILUPBiCG:  Solving for epsilon, Initial residual = 0.000222641, Final residual = 8.35182e-09, No Iterations 2
DILUPBiCG:  Solving for Rxx, Initial residual = 0.00150853, Final residual = 8.75342e-06, No Iterations 1
DILUPBiCG:  Solving for Rxy, Initial residual = 0.02889, Final residual = 3.27436e-05, No Iterations 1
DILUPBiCG:  Solving for Rxz, Initial residual = 0.0335832, Final residual = 4.23803e-05, No Iterations 1
DILUPBiCG:  Solving for Ryy, Initial residual = 0.00131917, Final residual = 7.80592e-06, No Iterations 1
DILUPBiCG:  Solving for Ryz, Initial residual = 0.0240077, Final residual = 0.000109525, No Iterations 1
DILUPBiCG:  Solving for Rzz, Initial residual = 0.00131788, Final residual = 7.85721e-06, No Iterations 1
Moving particles.

ExecutionTime = 50 s  ClockTime = 50 s

Courant Number mean: 0.00292958 max: 0.556267
Interface Courant Number mean: 0.000166807 max: 0.230983
Time = 2.3e-05

DILUPBiCG:  Solving for alpha1, Initial residual = 0.000190492, Final residual = 1.45275e-08, No Iterations 1
DILUPBiCG:  Solving for alpha1, Initial residual = 1.36932e-05, Final residual = 3.54093e-09, No Iterations 1
MULES: max(alpha1 - 1) = 1.9932e-07 min(alpha1) = -3.56959e-05
DILUPBiCG:  Solving for alpha1, Initial residual = 1.50175e-07, Final residual = 2.35782e-10, No Iterations 1
Phase-1 volume fraction = 0.00230629  Min(alpha1) = -4.36149e-06  Max(alpha1) = 1
DILUPBiCG:  Solving for alpha1, Initial residual = 0.000189909, Final residual = 1.60559e-08, No Iterations 1
DILUPBiCG:  Solving for alpha1, Initial residual = 1.2812e-05, Final residual = 3.75886e-09, No Iterations 1
MULES: max(alpha1 - 1) = 1.98666e-07 min(alpha1) = -3.45433e-05
DILUPBiCG:  Solving for alpha1, Initial residual = 1.45382e-07, Final residual = 2.37349e-10, No Iterations 1
Phase-1 volume fraction = 0.00231862  Min(alpha1) = -4.10321e-06  Max(alpha1) = 1
DILUPBiCG:  Solving for alpha1, Initial residual = 0.000189342, Final residual = 1.77908e-08, No Iterations 1
DILUPBiCG:  Solving for alpha1, Initial residual = 1.20962e-05, Final residual = 3.99504e-09, No Iterations 1
MULES: max(alpha1 - 1) = 1.97979e-07 min(alpha1) = -3.54493e-05
DILUPBiCG:  Solving for alpha1, Initial residual = 1.33171e-07, Final residual = 2.27588e-10, No Iterations 1
Phase-1 volume fraction = 0.00233096  Min(alpha1) = -4.1295e-06  Max(alpha1) = 1
DILUPBiCG:  Solving for T, Initial residual = 0.0221481, Final residual = 2.43002e-09, No Iterations 3
DICPCG:  Solving for p_rgh, Initial residual = 0.0440429, Final residual = 0.0017815, No Iterations 10
time step continuity errors : sum local = 3.20796e-07, global = 6.40107e-08, cumulative = -3.35914e-05
DICPCG:  Solving for p_rgh, Initial residual = 0.0147777, Final residual = 0.000674865, No Iterations 13
time step continuity errors : sum local = 1.2295e-07, global = 3.85521e-09, cumulative = -3.35875e-05
DICPCG:  Solving for p_rgh, Initial residual = 0.00283172, Final residual = 9.25639e-08, No Iterations 128
time step continuity errors : sum local = 1.69799e-11, global = 5.25602e-14, cumulative = -3.35875e-05
DILUPBiCG:  Solving for epsilon, Initial residual = 0.000220725, Final residual = 7.97428e-09, No Iterations 2
DILUPBiCG:  Solving for Rxx, Initial residual = 0.00145249, Final residual = 8.20684e-06, No Iterations 1
DILUPBiCG:  Solving for Rxy, Initial residual = 0.0275197, Final residual = 3.01232e-05, No Iterations 1
DILUPBiCG:  Solving for Rxz, Initial residual = 0.0319864, Final residual = 3.84939e-05, No Iterations 1
DILUPBiCG:  Solving for Ryy, Initial residual = 0.00126811, Final residual = 7.39153e-06, No Iterations 1
DILUPBiCG:  Solving for Ryz, Initial residual = 0.0223472, Final residual = 9.95033e-05, No Iterations 1
DILUPBiCG:  Solving for Rzz, Initial residual = 0.00126684, Final residual = 7.43747e-06, No Iterations 1
Moving particles.

ExecutionTime = 51.8 s  ClockTime = 52 s

Courant Number mean: 0.00297161 max: 0.556222
Interface Courant Number mean: 0.000169217 max: 0.27475
Time = 2.4e-05

DILUPBiCG:  Solving for alpha1, Initial residual = 0.00018893, Final residual = 1.45348e-08, No Iterations 1
DILUPBiCG:  Solving for alpha1, Initial residual = 1.15689e-05, Final residual = 3.39232e-09, No Iterations 1
MULES: max(alpha1 - 1) = 1.97267e-07 min(alpha1) = -3.42451e-05
DILUPBiCG:  Solving for alpha1, Initial residual = 1.30754e-07, Final residual = 2.15151e-10, No Iterations 1
Phase-1 volume fraction = 0.00234329  Min(alpha1) = -4.65049e-06  Max(alpha1) = 1
DILUPBiCG:  Solving for alpha1, Initial residual = 0.000188376, Final residual = 1.60196e-08, No Iterations 1
DILUPBiCG:  Solving for alpha1, Initial residual = 1.20923e-05, Final residual = 3.63509e-09, No Iterations 1
MULES: max(alpha1 - 1) = 1.96542e-07 min(alpha1) = -3.21146e-05
DILUPBiCG:  Solving for alpha1, Initial residual = 1.19332e-07, Final residual = 1.99501e-10, No Iterations 1
Phase-1 volume fraction = 0.00235562  Min(alpha1) = -4.54129e-06  Max(alpha1) = 1
DILUPBiCG:  Solving for alpha1, Initial residual = 0.000187819, Final residual = 1.76799e-08, No Iterations 1
DILUPBiCG:  Solving for alpha1, Initial residual = 1.25024e-05, Final residual = 3.88335e-09, No Iterations 1
MULES: max(alpha1 - 1) = 1.96072e-07 min(alpha1) = -3.35613e-05
DILUPBiCG:  Solving for alpha1, Initial residual = 1.0849e-07, Final residual = 1.80497e-10, No Iterations 1
Phase-1 volume fraction = 0.00236796  Min(alpha1) = -4.3788e-06  Max(alpha1) = 1
DILUPBiCG:  Solving for T, Initial residual = 0.0211651, Final residual = 2.17356e-09, No Iterations 3
DICPCG:  Solving for p_rgh, Initial residual = 0.0432541, Final residual = 0.0020773, No Iterations 10
time step continuity errors : sum local = 3.7755e-07, global = 7.55475e-08, cumulative = -3.3512e-05
DICPCG:  Solving for p_rgh, Initial residual = 0.0148399, Final residual = 0.000699597, No Iterations 13
time step continuity errors : sum local = 1.28405e-07, global = 1.78903e-08, cumulative = -3.34941e-05
DICPCG:  Solving for p_rgh, Initial residual = 0.00279866, Final residual = 9.12292e-08, No Iterations 128
time step continuity errors : sum local = 1.68682e-11, global = 3.47151e-15, cumulative = -3.34941e-05
DILUPBiCG:  Solving for epsilon, Initial residual = 0.000220649, Final residual = 7.58132e-09, No Iterations 2
DILUPBiCG:  Solving for Rxx, Initial residual = 0.00140035, Final residual = 7.70265e-06, No Iterations 1
DILUPBiCG:  Solving for Rxy, Initial residual = 0.0262548, Final residual = 2.77924e-05, No Iterations 1
DILUPBiCG:  Solving for Rxz, Initial residual = 0.0305046, Final residual = 3.51923e-05, No Iterations 1
DILUPBiCG:  Solving for Ryy, Initial residual = 0.00122108, Final residual = 7.01768e-06, No Iterations 1
DILUPBiCG:  Solving for Ryz, Initial residual = 0.0208732, Final residual = 9.05599e-05, No Iterations 1
DILUPBiCG:  Solving for Rzz, Initial residual = 0.00121981, Final residual = 7.05759e-06, No Iterations 1
Moving particles.

ExecutionTime = 53.6 s  ClockTime = 54 s

Courant Number mean: 0.00301179 max: 0.55618
Interface Courant Number mean: 0.000174753 max: 0.270012
Time = 2.5e-05

DILUPBiCG:  Solving for alpha1, Initial residual = 0.000187342, Final residual = 1.42242e-08, No Iterations 1
DILUPBiCG:  Solving for alpha1, Initial residual = 1.29011e-05, Final residual = 3.40415e-09, No Iterations 1
MULES: max(alpha1 - 1) = 1.95581e-07 min(alpha1) = -3.41626e-05
DILUPBiCG:  Solving for alpha1, Initial residual = 1.05714e-07, Final residual = 1.68593e-10, No Iterations 1
Phase-1 volume fraction = 0.00238029  Min(alpha1) = -5.07232e-06  Max(alpha1) = 1
DILUPBiCG:  Solving for alpha1, Initial residual = 0.000186763, Final residual = 1.56925e-08, No Iterations 1
DILUPBiCG:  Solving for alpha1, Initial residual = 1.36937e-05, Final residual = 3.65668e-09, No Iterations 1
MULES: max(alpha1 - 1) = 1.9505e-07 min(alpha1) = -3.50722e-05
DILUPBiCG:  Solving for alpha1, Initial residual = 9.90951e-08, Final residual = 1.61614e-10, No Iterations 1
Phase-1 volume fraction = 0.00239262  Min(alpha1) = -5.49046e-06  Max(alpha1) = 1
DILUPBiCG:  Solving for alpha1, Initial residual = 0.000186182, Final residual = 1.73756e-08, No Iterations 1
DILUPBiCG:  Solving for alpha1, Initial residual = 1.42817e-05, Final residual = 3.90945e-09, No Iterations 1
MULES: max(alpha1 - 1) = 1.94483e-07 min(alpha1) = -3.33349e-05
DILUPBiCG:  Solving for alpha1, Initial residual = 9.50714e-08, Final residual = 1.53219e-10, No Iterations 1
Phase-1 volume fraction = 0.00240496  Min(alpha1) = -5.31592e-06  Max(alpha1) = 1
DILUPBiCG:  Solving for T, Initial residual = 0.0203182, Final residual = 2.02856e-09, No Iterations 3
DICPCG:  Solving for p_rgh, Initial residual = 0.0422999, Final residual = 0.00169125, No Iterations 10
time step continuity errors : sum local = 3.11098e-07, global = 5.30327e-08, cumulative = -3.34411e-05
DICPCG:  Solving for p_rgh, Initial residual = 0.0143702, Final residual = 0.000693755, No Iterations 13
time step continuity errors : sum local = 1.29451e-07, global = -3.94416e-09, cumulative = -3.3445e-05
DICPCG:  Solving for p_rgh, Initial residual = 0.00281223, Final residual = 8.86054e-08, No Iterations 130
time step continuity errors : sum local = 1.66722e-11, global = 3.09387e-14, cumulative = -3.3445e-05
DILUPBiCG:  Solving for epsilon, Initial residual = 0.000222658, Final residual = 7.09433e-09, No Iterations 2
DILUPBiCG:  Solving for Rxx, Initial residual = 0.00135171, Final residual = 7.23637e-06, No Iterations 1
DILUPBiCG:  Solving for Rxy, Initial residual = 0.025084, Final residual = 2.57253e-05, No Iterations 1
DILUPBiCG:  Solving for Rxz, Initial residual = 0.0291262, Final residual = 3.23411e-05, No Iterations 1
DILUPBiCG:  Solving for Ryy, Initial residual = 0.00117768, Final residual = 6.67462e-06, No Iterations 1
DILUPBiCG:  Solving for Ryz, Initial residual = 0.01953, Final residual = 8.29194e-05, No Iterations 1
DILUPBiCG:  Solving for Rzz, Initial residual = 0.00117642, Final residual = 6.70956e-06, No Iterations 1
Moving particles.

ExecutionTime = 55.55 s  ClockTime = 56 s

Courant Number mean: 0.00305186 max: 0.55993
Interface Courant Number mean: 0.00017487 max: 0.253558
Time = 2.6e-05

DILUPBiCG:  Solving for alpha1, Initial residual = 0.000185696, Final residual = 1.39293e-08, No Iterations 1
DILUPBiCG:  Solving for alpha1, Initial residual = 1.43862e-05, Final residual = 3.41689e-09, No Iterations 1
[...]
MULES: max(alpha1 - 1) = 40.322 min(alpha1) = -4.99633e-06
DILUPBiCG:  Solving for alpha1, Initial residual = 3.09585e-06, Final residual = 2.11459e-09, No Iterations 1
MULES: max(alpha1 - 1) = 40.3222 min(alpha1) = -2.87961e-06
DILUPBiCG:  Solving for alpha1, Initial residual = 3.85623e-07, Final residual = 1.96226e-10, No Iterations 1
MULES: max(alpha1 - 1) = 40.3222 min(alpha1) = -1.03635e-07
DILUPBiCG:  Solving for alpha1, Initial residual = 5.24842e-08, Final residual = 7.68509e-11, No Iterations 1
MULES: max(alpha1 - 1) = 40.3222 min(alpha1) = -5.652e-08
DILUPBiCG:  Solving for alpha1, Initial residual = 9.88701e-09, Final residual = 1.33835e-11, No Iterations 1
MULES: max(alpha1 - 1) = 40.3222 min(alpha1) = -3.71469e-09
DILUPBiCG:  Solving for alpha1, Initial residual = 1.69765e-05, Final residual = 2.71696e-09, No Iterations 1
MULES: max(alpha1 - 1) = 40.3222 min(alpha1) = -1.31577e-05
DILUPBiCG:  Solving for alpha1, Initial residual = 1.0361e-07, Final residual = 1.26265e-10, No Iterations 1
MULES: max(alpha1 - 1) = 40.3222 min(alpha1) = -1.41625e-06
DILUPBiCG:  Solving for alpha1, Initial residual = 1.73661e-08, Final residual = 2.14175e-11, No Iterations 1
MULES: max(alpha1 - 1) = 40.3221 min(alpha1) = -2.18756e-07
DILUPBiCG:  Solving for alpha1, Initial residual = 8.93889e-09, Final residual = 2.60453e-11, No Iterations 1
MULES: max(alpha1 - 1) = 40.3221 min(alpha1) = -1.11854e-07
DILUPBiCG:  Solving for alpha1, Initial residual = 1.47276e-09, Final residual = 1.84594e-12, No Iterations 1
MULES: max(alpha1 - 1) = 40.3221 min(alpha1) = -1.22916e-08
Phase-1 volume fraction = 0.0879592  Min(alpha1) = -1.22916e-08  Max(alpha1) = 41.3221
DILUPBiCG:  Solving for alpha1, Initial residual = 0.0008471, Final residual = 1.85676e-07, No Iterations 1
MULES: max(alpha1 - 1) = 39.8001 min(alpha1) = -4.96082e-06
DILUPBiCG:  Solving for alpha1, Initial residual = 2.515e-06, Final residual = 5.27698e-09, No Iterations 1
MULES: max(alpha1 - 1) = 39.8002 min(alpha1) = -1.41467e-06
DILUPBiCG:  Solving for alpha1, Initial residual = 5.32248e-07, Final residual = 1.19657e-10, No Iterations 1
MULES: max(alpha1 - 1) = 39.8002 min(alpha1) = -6.85782e-08
DILUPBiCG:  Solving for alpha1, Initial residual = 5.89602e-08, Final residual = 7.87394e-11, No Iterations 1
MULES: max(alpha1 - 1) = 39.8002 min(alpha1) = -5.67617e-08
DILUPBiCG:  Solving for alpha1, Initial residual = 1.3462e-08, Final residual = 9.30271e-12, No Iterations 1
MULES: max(alpha1 - 1) = 39.8002 min(alpha1) = -3.69947e-09
DILUPBiCG:  Solving for alpha1, Initial residual = 1.67961e-05, Final residual = 2.57317e-09, No Iterations 1
MULES: max(alpha1 - 1) = 39.8002 min(alpha1) = -1.28188e-05
DILUPBiCG:  Solving for alpha1, Initial residual = 1.19797e-07, Final residual = 1.71923e-10, No Iterations 1
MULES: max(alpha1 - 1) = 39.8002 min(alpha1) = -1.49432e-06
DILUPBiCG:  Solving for alpha1, Initial residual = 1.76452e-08, Final residual = 6.82073e-11, No Iterations 1
MULES: max(alpha1 - 1) = 39.8002 min(alpha1) = -2.34806e-07
DILUPBiCG:  Solving for alpha1, Initial residual = 9.82322e-09, Final residual = 1.05538e-11, No Iterations 1
MULES: max(alpha1 - 1) = 39.8002 min(alpha1) = -1.23531e-07
DILUPBiCG:  Solving for alpha1, Initial residual = 1.88858e-09, Final residual = 2.02935e-11, No Iterations 1
MULES: max(alpha1 - 1) = 39.8002 min(alpha1) = -1.42813e-08
Phase-1 volume fraction = 0.0879716  Min(alpha1) = -1.42813e-08  Max(alpha1) = 40.8002
DILUPBiCG:  Solving for T, Initial residual = 0.00277903, Final residual = 1.32305e-09, No Iterations 3
DICPCG:  Solving for p_rgh, Initial residual = 0.043882, Final residual = 0.0020468, No Iterations 2
time step continuity errors : sum local = 9.04073e-06, global = 1.53806e-10, cumulative = -2.86868e-05
DICPCG:  Solving for p_rgh, Initial residual = 6.64354e-09, Final residual = 6.64354e-09, No Iterations 0
time step continuity errors : sum local = 5.19073e-05, global = 1.4762e-10, cumulative = -2.86867e-05
DICPCG:  Solving for p_rgh, Initial residual = 5.46378e-09, Final residual = 5.46378e-09, No Iterations 0
time step continuity errors : sum local = 4.26895e-05, global = 1.48426e-10, cumulative = -2.86865e-05
DILUPBiCG:  Solving for epsilon, Initial residual = 0.000108158, Final residual = 4.33208e-12, No Iterations 1
bounding epsilon, min: -4.30466e-05 max: 782813 average: 5595.89
DILUPBiCG:  Solving for Rxx, Initial residual = 0.999998, Final residual = 0.000203455, No Iterations 2
DILUPBiCG:  Solving for Rxy, Initial residual = 1, Final residual = 0.000325334, No Iterations 2
DILUPBiCG:  Solving for Rxz, Initial residual = 0.999999, Final residual = 0.000339758, No Iterations 2
DILUPBiCG:  Solving for Ryy, Initial residual = 0.999997, Final residual = 0.000195543, No Iterations 2
DILUPBiCG:  Solving for Ryz, Initial residual = 1, Final residual = 0.000286358, No Iterations 2
DILUPBiCG:  Solving for Rzz, Initial residual = 0.999996, Final residual = 0.000202582, No Iterations 2
Moving particles.

ExecutionTime = 7161.02 s  ClockTime = 7251 s

Courant Number mean: 0.0318693 max: 0.773985
Interface Courant Number mean: 0.00627855 max: 0.542494
Time = 0.000629

DILUPBiCG:  Solving for alpha1, Initial residual = 0.000856829, Final residual = 1.42203e-07, No Iterations 1
MULES: max(alpha1 - 1) = 39.3211 min(alpha1) = -3.08031e-06
DILUPBiCG:  Solving for alpha1, Initial residual = 2.64127e-06, Final residual = 4.6986e-09, No Iterations 1
MULES: max(alpha1 - 1) = 39.3212 min(alpha1) = -1.6038e-07
DILUPBiCG:  Solving for alpha1, Initial residual = 5.09119e-07, Final residual = 2.17364e-10, No Iterations 1
MULES: max(alpha1 - 1) = 39.3212 min(alpha1) = -5.51186e-08
DILUPBiCG:  Solving for alpha1, Initial residual = 1.05344e-07, Final residual = 2.07511e-11, No Iterations 1
MULES: max(alpha1 - 1) = 39.3212 min(alpha1) = -5.3347e-08
DILUPBiCG:  Solving for alpha1, Initial residual = 3.40353e-08, Final residual = 4.08015e-12, No Iterations 1
MULES: max(alpha1 - 1) = 39.3212 min(alpha1) = -3.48352e-09
DILUPBiCG:  Solving for alpha1, Initial residual = 1.70522e-05, Final residual = 2.70834e-09, No Iterations 1
MULES: max(alpha1 - 1) = 39.3212 min(alpha1) = -1.58948e-05
DILUPBiCG:  Solving for alpha1, Initial residual = 9.75999e-08, Final residual = 3.96177e-11, No Iterations 1
MULES: max(alpha1 - 1) = 39.3212 min(alpha1) = -1.94786e-06
DILUPBiCG:  Solving for alpha1, Initial residual = 2.35384e-08, Final residual = 1.09758e-10, No Iterations 1
MULES: max(alpha1 - 1) = 39.3212 min(alpha1) = -2.36017e-07
DILUPBiCG:  Solving for alpha1, Initial residual = 1.26251e-08, Final residual = 1.30925e-12, No Iterations 1
MULES: max(alpha1 - 1) = 39.3212 min(alpha1) = -1.05546e-07
DILUPBiCG:  Solving for alpha1, Initial residual = 2.76967e-09, Final residual = 4.91472e-13, No Iterations 1
MULES: max(alpha1 - 1) = 39.3212 min(alpha1) = -1.05809e-08
Phase-1 volume fraction = 0.0883458  Min(alpha1) = -1.05809e-08  Max(alpha1) = 40.3212
DILUPBiCG:  Solving for alpha1, Initial residual = 0.000849611, Final residual = 1.44022e-07, No Iterations 1
MULES: max(alpha1 - 1) = 38.8486 min(alpha1) = -3.06804e-06
DILUPBiCG:  Solving for alpha1, Initial residual = 2.39282e-06, Final residual = 2.77088e-09, No Iterations 1
MULES: max(alpha1 - 1) = 38.8486 min(alpha1) = -1.61579e-07
DILUPBiCG:  Solving for alpha1, Initial residual = 3.22668e-07, Final residual = 1.86616e-09, No Iterations 1
MULES: max(alpha1 - 1) = 38.8486 min(alpha1) = -5.31825e-08
DILUPBiCG:  Solving for alpha1, Initial residual = 1.0275e-07, Final residual = 2.17977e-11, No Iterations 1
MULES: max(alpha1 - 1) = 38.8486 min(alpha1) = -5.05227e-08
DILUPBiCG:  Solving for alpha1, Initial residual = 3.18369e-08, Final residual = 3.8983e-12, No Iterations 1
MULES: max(alpha1 - 1) = 38.8486 min(alpha1) = -1.65573e-10
DILUPBiCG:  Solving for alpha1, Initial residual = 1.68275e-05, Final residual = 2.60532e-09, No Iterations 1
MULES: max(alpha1 - 1) = 38.8486 min(alpha1) = -2.32076e-05
DILUPBiCG:  Solving for alpha1, Initial residual = 1.0652e-07, Final residual = 5.35859e-11, No Iterations 1
MULES: max(alpha1 - 1) = 38.8486 min(alpha1) = -2.84801e-06
DILUPBiCG:  Solving for alpha1, Initial residual = 2.5293e-08, Final residual = 1.40915e-11, No Iterations 1
MULES: max(alpha1 - 1) = 38.8486 min(alpha1) = -2.81774e-07
DILUPBiCG:  Solving for alpha1, Initial residual = 1.26351e-08, Final residual = 2.27647e-12, No Iterations 1
MULES: max(alpha1 - 1) = 38.8486 min(alpha1) = -1.17034e-07
DILUPBiCG:  Solving for alpha1, Initial residual = 2.66153e-09, Final residual = 3.79283e-13, No Iterations 1
MULES: max(alpha1 - 1) = 38.8486 min(alpha1) = -1.17264e-08
Phase-1 volume fraction = 0.0883582  Min(alpha1) = -1.17264e-08  Max(alpha1) = 39.8486
DILUPBiCG:  Solving for alpha1, Initial residual = 0.000842473, Final residual = 1.46062e-07, No Iterations 1
MULES: max(alpha1 - 1) = 38.3823 min(alpha1) = -3.07001e-06
DILUPBiCG:  Solving for alpha1, Initial residual = 2.52572e-06, Final residual = 1.82985e-09, No Iterations 1
MULES: max(alpha1 - 1) = 38.3824 min(alpha1) = -1.62995e-07
DILUPBiCG:  Solving for alpha1, Initial residual = 3.20275e-07, Final residual = 3.24138e-10, No Iterations 1
MULES: max(alpha1 - 1) = 38.3824 min(alpha1) = -4.93017e-08
DILUPBiCG:  Solving for alpha1, Initial residual = 1.07062e-07, Final residual = 3.3027e-11, No Iterations 1
MULES: max(alpha1 - 1) = 38.3824 min(alpha1) = -4.66281e-08
DILUPBiCG:  Solving for alpha1, Initial residual = 3.15011e-08, Final residual = 4.31901e-12, No Iterations 1
MULES: max(alpha1 - 1) = 38.3824 min(alpha1) = -1.65455e-10
DILUPBiCG:  Solving for alpha1, Initial residual = 1.66247e-05, Final residual = 2.43173e-09, No Iterations 1
MULES: max(alpha1 - 1) = 38.3824 min(alpha1) = -2.49021e-05
DILUPBiCG:  Solving for alpha1, Initial residual = 1.10717e-07, Final residual = 4.312e-11, No Iterations 1
MULES: max(alpha1 - 1) = 38.3824 min(alpha1) = -3.05336e-06
DILUPBiCG:  Solving for alpha1, Initial residual = 2.48305e-08, Final residual = 1.06282e-11, No Iterations 1
MULES: max(alpha1 - 1) = 38.3824 min(alpha1) = -3.64568e-07
DILUPBiCG:  Solving for alpha1, Initial residual = 1.2605e-08, Final residual = 4.8967e-12, No Iterations 1
MULES: max(alpha1 - 1) = 38.3824 min(alpha1) = -1.30027e-07
DILUPBiCG:  Solving for alpha1, Initial residual = 2.67973e-09, Final residual = 6.39101e-13, No Iterations 1
MULES: max(alpha1 - 1) = 38.3824 min(alpha1) = -1.30408e-08
Phase-1 volume fraction = 0.0883705  Min(alpha1) = -1.30408e-08  Max(alpha1) = 39.3824
DILUPBiCG:  Solving for T, Initial residual = 0.00270183, Final residual = 1.50017e-09, No Iterations 3
DICPCG:  Solving for p_rgh, Initial residual = 0.996743, Final residual = 0.0365656, No Iterations 3
time step continuity errors : sum local = 87711.6, global = 5.20102e-08, cumulative = -2.86345e-05
DICPCG:  Solving for p_rgh, Initial residual = 0.957499, Final residual = 0.0458463, No Iterations 16
time step continuity errors : sum local = 4229.85, global = 58.6345, cumulative = 58.6344
DICPCG:  Solving for p_rgh, Initial residual = 0.690938, Final residual = 9.41154e-08, No Iterations 169
time step continuity errors : sum local = 0.000894146, global = -3.0401e-06, cumulative = 58.6344
DILUPBiCG:  Solving for epsilon, Initial residual = 0.0424274, Final residual = 8.51658e-09, No Iterations 62
bounding epsilon, min: 1.86262e-19 max: 2.80482e+06 average: 24214
DILUPBiCG:  Solving for Rxx, Initial residual = 5.57622e-10, Final residual = 5.57622e-10, No Iterations 0
DILUPBiCG:  Solving for Rxy, Initial residual = 4.12673e-08, Final residual = 4.12673e-08, No Iterations 0
DILUPBiCG:  Solving for Rxz, Initial residual = 1.50329e-08, Final residual = 1.50329e-08, No Iterations 0
DILUPBiCG:  Solving for Ryy, Initial residual = 5.1353e-10, Final residual = 5.1353e-10, No Iterations 0
DILUPBiCG:  Solving for Ryz, Initial residual = 6.35084e-08, Final residual = 6.35084e-08, No Iterations 0
DILUPBiCG:  Solving for Rzz, Initial residual = 4.21835e-10, Final residual = 4.21835e-10, No Iterations 0
Moving particles.

ExecutionTime = 7461.5 s  ClockTime = 7552 s

Courant Number mean: 1147.49 max: 716225
Interface Courant Number mean: 124.158 max: 475938
Time = 0.00063

DILUPBiCG:  Solving for alpha1, Initial residual = 0.979528, Final residual = 0.0716828, No Iterations 3
MULES: max(alpha1 - 1) = 23.0596 min(alpha1) = -1.3966
DILUPBiCG:  Solving for alpha1, Initial residual = 0.809505, Final residual = 0.60139, No Iterations 6
MULES: max(alpha1 - 1) = 24.9528 min(alpha1) = -3.14916
DILUPBiCG:  Solving for alpha1, Initial residual = 0.755525, Final residual = 0.0889275, No Iterations 6
MULES: max(alpha1 - 1) = 26.5759 min(alpha1) = -4.79692
DILUPBiCG:  Solving for alpha1, Initial residual = 0.261313, Final residual = 0.0401285, No Iterations 6
MULES: max(alpha1 - 1) = 27.2094 min(alpha1) = -5.86351
DILUPBiCG:  Solving for alpha1, Initial residual = 0.0585331, Final residual = 0.0445357, No Iterations 6
MULES: max(alpha1 - 1) = 29.8565 min(alpha1) = -4.21514e-13
DILUPBiCG:  Solving for alpha1, Initial residual = 0.0666524, Final residual = 0.065793, No Iterations 6
MULES: max(alpha1 - 1) = 26.7864 min(alpha1) = -0.641474
DILUPBiCG:  Solving for alpha1, Initial residual = 0.0656867, Final residual = 0.0846239, No Iterations 6
MULES: max(alpha1 - 1) = 28.4393 min(alpha1) = -7.28155
DILUPBiCG:  Solving for alpha1, Initial residual = 0.0825849, Final residual = 25.2281, No Iterations 6
MULES: max(alpha1 - 1) = 52.9105 min(alpha1) = -22.3118
DILUPBiCG:  Solving for alpha1, Initial residual = 0.977493, Final residual = 0.862608, No Iterations 6
MULES: max(alpha1 - 1) = 28.601 min(alpha1) = -5.47896
DILUPBiCG:  Solving for alpha1, Initial residual = 0.976511, Final residual = 0.21504, No Iterations 6
MULES: max(alpha1 - 1) = 28.005 min(alpha1) = -2.21373
Phase-1 volume fraction = 0.00491573  Min(alpha1) = -2.21373  Max(alpha1) = 29.005
DILUPBiCG:  Solving for alpha1, Initial residual = 0.85206, Final residual = 0.32825, No Iterations 6
MULES: max(alpha1 - 1) = 20.6892 min(alpha1) = -1.41867
DILUPBiCG:  Solving for alpha1, Initial residual = 0.674799, Final residual = 0.221672, No Iterations 6
MULES: max(alpha1 - 1) = 27.1808 min(alpha1) = -10.9677
DILUPBiCG:  Solving for alpha1, Initial residual = 0.385025, Final residual = 0.301128, No Iterations 6
MULES: max(alpha1 - 1) = 29.7434 min(alpha1) = -12.9171
DILUPBiCG:  Solving for alpha1, Initial residual = 0.322574, Final residual = 0.0576131, No Iterations 6
MULES: max(alpha1 - 1) = 29.8426 min(alpha1) = -12.6824
DILUPBiCG:  Solving for alpha1, Initial residual = 0.0859288, Final residual = 0.118252, No Iterations 6
MULES: max(alpha1 - 1) = 25.312 min(alpha1) = -0.730451
DILUPBiCG:  Solving for alpha1, Initial residual = 0.125849, Final residual = 0.322625, No Iterations 6
MULES: max(alpha1 - 1) = 28.1391 min(alpha1) = -0.733963
DILUPBiCG:  Solving for alpha1, Initial residual = 0.277049, Final residual = 0.330825, No Iterations 6
MULES: max(alpha1 - 1) = 26.6911 min(alpha1) = -0.726886
DILUPBiCG:  Solving for alpha1, Initial residual = 0.312823, Final residual = 0.494332, No Iterations 6
MULES: max(alpha1 - 1) = 26.5424 min(alpha1) = -0.742063
DILUPBiCG:  Solving for alpha1, Initial residual = 0.427432, Final residual = 0.259651, No Iterations 6
MULES: max(alpha1 - 1) = 26.8437 min(alpha1) = -0.721523
DILUPBiCG:  Solving for alpha1, Initial residual = 0.309377, Final residual = 0.0570618, No Iterations 6
MULES: max(alpha1 - 1) = 25.5002 min(alpha1) = -0.731943
Phase-1 volume fraction = 0.0287761  Min(alpha1) = -0.731943  Max(alpha1) = 26.5002
DILUPBiCG:  Solving for alpha1, Initial residual = 0.32747, Final residual = 2.89239, No Iterations 6
MULES: max(alpha1 - 1) = 21.2206 min(alpha1) = -3.37809
DILUPBiCG:  Solving for alpha1, Initial residual = 0.843773, Final residual = 1.97003, No Iterations 6
MULES: max(alpha1 - 1) = 23.5084 min(alpha1) = -5.68114
DILUPBiCG:  Solving for alpha1, Initial residual = 0.923451, Final residual = 0.322387, No Iterations 6
MULES: max(alpha1 - 1) = 24.3428 min(alpha1) = -7.85402
DILUPBiCG:  Solving for alpha1, Initial residual = 0.799031, Final residual = 0.933652, No Iterations 6
MULES: max(alpha1 - 1) = 26.4523 min(alpha1) = -9.52425
DILUPBiCG:  Solving for alpha1, Initial residual = 0.814676, Final residual = 0.38456, No Iterations 6
MULES: max(alpha1 - 1) = 25.138 min(alpha1) = -0.412328
DILUPBiCG:  Solving for alpha1, Initial residual = 0.671714, Final residual = 0.133008, No Iterations 6
MULES: max(alpha1 - 1) = 22.7398 min(alpha1) = -0.427443
DILUPBiCG:  Solving for alpha1, Initial residual = 0.281811, Final residual = 0.105694, No Iterations 6
MULES: max(alpha1 - 1) = 24.4513 min(alpha1) = -4.43388
DILUPBiCG:  Solving for alpha1, Initial residual = 0.123843, Final residual = 0.0572256, No Iterations 6
MULES: max(alpha1 - 1) = 27.6081 min(alpha1) = -6.31978
DILUPBiCG:  Solving for alpha1, Initial residual = 0.0595887, Final residual = 0.0130617, No Iterations 6
MULES: max(alpha1 - 1) = 28.0419 min(alpha1) = -6.09119
DILUPBiCG:  Solving for alpha1, Initial residual = 0.0201763, Final residual = 0.00663405, No Iterations 6
MULES: max(alpha1 - 1) = 23.1202 min(alpha1) = -0.433833
Phase-1 volume fraction = 0.0381911  Min(alpha1) = -0.433833  Max(alpha1) = 24.1202
DILUPBiCG:  Solving for T, Initial residual = 0.944345, Final residual = 9.52136e-08, No Iterations 102
DICPCG:  Solving for p_rgh, Initial residual = 0.999971, Final residual = 0.684552, No Iterations 1001
time step continuity errors : sum local = 133209, global = 8.83505, cumulative = 67.4695
DICPCG:  Solving for p_rgh, Initial residual = 0.999509, Final residual = 0.986115, No Iterations 1001
time step continuity errors : sum local = 8.56712e+08, global = -1.74329e+07, cumulative = -1.74328e+07
DICPCG:  Solving for p_rgh, Initial residual = 1, Final residual = 25.073, No Iterations 1001
time step continuity errors : sum local = 2.67922e+18, global = -4.6227e+14, cumulative = -4.6227e+14
DILUPBiCG:  Solving for epsilon, Initial residual = 0.948511, Final residual = 6.12763e-09, No Iterations 152
bounding epsilon, min: -1.90684e+21 max: 8.61352e+25 average: 7.65876e+23
DILUPBiCG:  Solving for Rxx, Initial residual = 3.77331e-12, Final residual = 3.77331e-12, No Iterations 0
DILUPBiCG:  Solving for Rxy, Initial residual = 1.57828e-08, Final residual = 1.57828e-08, No Iterations 0
DILUPBiCG:  Solving for Rxz, Initial residual = 1.01964e-08, Final residual = 1.01964e-08, No Iterations 0
DILUPBiCG:  Solving for Ryy, Initial residual = 2.7737e-12, Final residual = 2.7737e-12, No Iterations 0
DILUPBiCG:  Solving for Ryz, Initial residual = 1.95343e-08, Final residual = 1.95343e-08, No Iterations 0
DILUPBiCG:  Solving for Rzz, Initial residual = 2.76915e-12, Final residual = 2.76915e-12, No Iterations 0
Moving particles.

#0  Foam::error::printStack(Foam::Ostream&) in "/opt/openfoam211/platforms/linux64GccDPOpt/lib/libOpenFOAM.so"
#1  Foam::sigFpe::sigHandler(int) in "/opt/openfoam211/platforms/linux64GccDPOpt/lib/libOpenFOAM.so"
#2   in "/lib/x86_64-linux-gnu/libc.so.6"
#3   in "/lib/x86_64-linux-gnu/libm.so.6"
#4  Foam::solidParticle::move(Foam::solidParticle::trackingData&, double) in "/home/saeedipour/OpenFOAM/saeedipour-2.1.1/platforms/linux64GccDPOpt/bin/HPDCinterFoam"
#5  void Foam::Cloud<Foam::solidParticle>::move<Foam::solidParticle::trackingData>(Foam::solidParticle::trackingData&, double) in "/home/saeedipour/OpenFOAM/saeedipour-2.1.1/platforms/linux64GccDPOpt/bin/HPDCinterFoam"
#6  Foam::solidParticleCloud::move(Foam::dimensioned<Foam::Vector<double> > const&) in "/home/saeedipour/OpenFOAM/saeedipour-2.1.1/platforms/linux64GccDPOpt/bin/HPDCinterFoam"
#7  
 in "/home/saeedipour/OpenFOAM/saeedipour-2.1.1/platforms/linux64GccDPOpt/bin/HPDCinterFoam"
#8  __libc_start_main in "/lib/x86_64-linux-gnu/libc.so.6"
#9  
 in "/home/saeedipour/OpenFOAM/saeedipour-2.1.1/platforms/linux64GccDPOpt/bin/HPDCinterFoam"
